                                  MODFLOW-2005     
      U.S. GEOLOGICAL SURVEY MODULAR FINITE-DIFFERENCE GROUND-WATER FLOW MODEL
                            VERSION 1.11.00 8/8/2013

 LIST FILE: Modelo_Supe_4c.lst
                         UNIT   11

 OPENING Modelo_Supe_4c.cbc
 FILE TYPE:DATA(BINARY)   UNIT    9   STATUS:REPLACE
 FORMAT:BINARY                 ACCESS:SEQUENTIAL          

 OPENING Modelo_Supe_4c.dis
 FILE TYPE:DIS   UNIT   12   STATUS:OLD    
 FORMAT:FORMATTED              ACCESS:SEQUENTIAL          

 OPENING Modelo_Supe_4c.bas
 FILE TYPE:BAS6   UNIT   13   STATUS:OLD    
 FORMAT:FORMATTED              ACCESS:SEQUENTIAL          

 OPENING Modelo_Supe_4c.oc
 FILE TYPE:OC   UNIT   39   STATUS:OLD    
 FORMAT:FORMATTED              ACCESS:SEQUENTIAL          

 OPENING Modelo_Supe_4c.fhd
 FILE TYPE:DATA   UNIT   37   STATUS:REPLACE
 FORMAT:FORMATTED              ACCESS:SEQUENTIAL          

 OPENING Modelo_Supe_4c.fdn
 FILE TYPE:DATA   UNIT   38   STATUS:REPLACE
 FORMAT:FORMATTED              ACCESS:SEQUENTIAL          

 OPENING Modelo_Supe_4c.pcg
 FILE TYPE:PCG   UNIT   18   STATUS:OLD    
 FORMAT:FORMATTED              ACCESS:SEQUENTIAL          

 OPENING Modelo_Supe_4c.lpf
 FILE TYPE:LPF   UNIT   14   STATUS:OLD    
 FORMAT:FORMATTED              ACCESS:SEQUENTIAL          

 OPENING Modelo_Supe_4c.ghb
 FILE TYPE:GHB   UNIT   19   STATUS:OLD    
 FORMAT:FORMATTED              ACCESS:SEQUENTIAL          

 OPENING Modelo_Supe_4c.wel
 FILE TYPE:WEL   UNIT   20   STATUS:OLD    
 FORMAT:FORMATTED              ACCESS:SEQUENTIAL          

 OPENING Modelo_Supe_4c.riv
 FILE TYPE:RIV   UNIT   21   STATUS:OLD    
 FORMAT:FORMATTED              ACCESS:SEQUENTIAL          

 OPENING Modelo_Supe_4c.rch
 FILE TYPE:RCH   UNIT   24   STATUS:OLD    
 FORMAT:FORMATTED              ACCESS:SEQUENTIAL          

 OPENING Modelo_Supe_4c.evt
 FILE TYPE:EVT   UNIT   25   STATUS:OLD    
 FORMAT:FORMATTED              ACCESS:SEQUENTIAL          

 OPENING Modelo_Supe_4c.swi
 FILE TYPE:SWI2   UNIT  168   STATUS:OLD    
 FORMAT:FORMATTED              ACCESS:SEQUENTIAL          

 OPENING Modelo_Supe_4c.zta
 FILE TYPE:DATA(BINARY)   UNIT  170   STATUS:REPLACE
 FORMAT:BINARY                 ACCESS:SEQUENTIAL          

 BAS -- BASIC PACKAGE, VERSION 7, 5/2/2005 INPUT READ FROM UNIT   13
 
 MODFLOW was compiled using mixed precision
 Precision of REAL variables:           6
 Precision of DOUBLE PRECISION variables:          15

 DISCRETIZATION INPUT DATA READ FROM UNIT   12
 # Discretization File created on 05/07/2016 by ModelMuse version 3.7.1.0.
 # Upper left corner: (198783.49412905, 8802485.59102914)
 # Lower left corner: (208400.146353188, 8792868.938805)
 # Upper right corner: (206137.404653392, 8809839.50155348)
 # Lower right corner: (215754.05687753, 8800222.84932934)
 # Grid angle (in degrees counterclockwise): 45
    2 LAYERS        68 ROWS        52 COLUMNS
    2 STRESS PERIOD(S) IN SIMULATION
 MODEL TIME UNIT IS SECONDS
 MODEL LENGTH UNIT IS METERS
  Confining bed flag for each layer:
   0   0



                               DELR
 READING ON UNIT   12 WITH FORMAT: (FREE)              
   200.00       200.00       200.00       200.00       200.00    
   200.00       200.00       200.00       200.00       200.00    
   200.00       200.00       200.00       200.00       200.00    
   200.00       200.00       200.00       200.00       200.00    
   200.00       200.00       200.00       200.00       200.00    
   200.00       200.00       200.00       200.00       200.00    
   200.00       200.00       200.00       200.00       200.00    
   200.00       200.00       200.00       200.00       200.00    
   200.00       200.00       200.00       200.00       200.00    
   200.00       200.00       200.00       200.00       200.00    
   200.00       200.00    



                               DELC
 READING ON UNIT   12 WITH FORMAT: (FREE)              
   200.00       200.00       200.00       200.00       200.00    
   200.00       200.00       200.00       200.00       200.00    
   200.00       200.00       200.00       200.00       200.00    
   200.00       200.00       200.00       200.00       200.00    
   200.00       200.00       200.00       200.00       200.00    
   200.00       200.00       200.00       200.00       200.00    
   200.00       200.00       200.00       200.00       200.00    
   200.00       200.00       200.00       200.00       200.00    
   200.00       200.00       200.00       200.00       200.00    
   200.00       200.00       200.00       200.00       200.00    
   200.00       200.00       200.00       200.00       200.00    
   200.00       200.00       200.00       200.00       200.00    
   200.00       200.00       200.00       200.00       200.00    
   200.00       200.00       200.00    



           TOP ELEVATION OF LAYER 1
 READING ON UNIT   12 WITH FORMAT: (FREE)              

            1           2           3           4           5           6           7           8           9          10
           11          12          13          14          15          16          17          18          19          20
           21          22          23          24          25          26          27          28          29          30
           31          32          33          34          35          36          37          38          39          40
           41          42          43          44          45          46          47          48          49          50
           51          52
 ........................................................................................................................
   1    0.000       0.000       0.000       0.000       0.000       0.000       0.000       0.000       57.92       56.97    
        48.90       63.92       56.71       68.88       54.85       50.53       59.68       56.92       43.36       36.62    
        32.34       31.40       34.71       38.87       43.30       51.51       66.84       72.92       70.33       81.98    
        92.72       108.9       119.9       139.5       159.0       0.000       0.000       0.000       0.000       0.000    
        0.000       0.000       0.000       0.000       0.000       0.000       0.000       0.000       0.000       0.000    
        0.000       0.000    
   2    0.000       0.000       0.000       0.000       0.000       0.000       0.000       36.58       55.67       57.50    
        59.40       55.49       54.73       64.75       57.05       57.12       50.27       30.60       40.38       30.67    
        30.17       26.49       37.09       40.46       41.51       48.31       52.76       63.83       69.54       78.72    
        102.8       94.02       126.0       142.1       141.6       136.5       0.000       0.000       0.000       0.000    
        0.000       0.000       0.000       0.000       0.000       0.000       0.000       0.000       0.000       0.000    
        0.000       0.000    
   3    0.000       0.000       0.000       0.000       0.000       0.000       44.33       25.57       28.20       27.68    
        21.20       10.76       22.98       42.71       31.30       29.31       32.91       19.17       17.96       16.45    
        24.54       20.98       34.46       43.44       49.00       48.55       57.44       64.93       70.60       79.00    
        93.47       92.09       97.12       121.9       130.3       143.1       169.3       0.000       0.000       0.000    
        0.000       0.000       0.000       0.000       0.000       0.000       0.000       0.000       0.000       0.000    
        0.000       0.000    
   4    0.000       0.000       0.000       0.000       0.000       22.36       28.93       14.44       8.300       8.977    
        6.140       8.075       8.146       7.833       6.870       6.300       10.32       12.86       18.43       17.00    
        19.17       25.82       34.37       44.83       49.22       53.04       62.46       68.93       74.93       78.76    
        86.20       92.40       90.39       117.4       128.8       142.3       195.2       234.5       0.000       0.000    
        0.000       0.000       0.000       0.000       0.000       0.000       0.000       0.000       0.000       0.000    
        0.000       0.000    
   5    0.000       0.000       0.000       0.000       13.83       15.98       14.05       8.950       8.195       6.444    
        4.000       6.022       10.13       7.400       7.625       8.512       8.600       10.89       14.79       17.53    
        17.53       30.53       36.22       42.10       49.05       52.49       60.05       68.71       78.83       78.87    
        88.88       103.8       110.4       117.3       139.2       152.6       188.5       216.8       243.4       0.000    
        0.000       0.000       0.000       0.000       0.000       0.000       0.000       0.000       0.000       0.000    
        0.000       0.000    
   6  -10.000     -10.000     -10.000     -10.000       8.190       10.37       8.075       7.293       7.048       8.958    
        8.068       8.512       7.279       7.524       5.268       8.825       9.500       11.70       18.63       14.57    
        24.64       29.68       34.83       41.05       48.12       53.47       59.93       59.17       69.18       82.60    
        94.12       111.6       133.2       137.5       137.8       146.4       179.5       219.4       255.5       253.3    
        199.0       0.000       0.000       0.000       0.000       0.000       0.000       0.000       0.000       0.000    
        0.000       0.000    
   7  -10.000     -10.000     -10.000     -10.000       8.933       9.950       8.683       12.98       5.680       5.700    
        10.98       10.50       8.178       10.54       11.68       18.53       16.67       24.88       50.88       37.54    
        23.49       24.10       48.28       52.02       48.32       50.45       56.46       56.95       66.23       88.20    
        110.0       108.2       130.7       128.2       132.9       150.0       155.1       156.5       166.6       170.5    
        171.6       0.000       0.000       0.000       0.000       0.000       0.000       0.000       0.000       0.000    
        0.000       0.000    
   8  -10.000     -10.000     -10.000     -10.000       7.698       9.200       9.067       11.00       4.952       5.805    
        8.100       7.568       12.60       8.467       10.95       11.24       15.34       29.00       49.54       67.07    
        35.95       28.38       38.02       45.44       42.95       47.17       50.97       50.38       64.33       84.76    
        88.68       105.2       125.4       139.0       130.0       135.4       143.7       171.2       176.3       183.5    
        175.8       187.9       0.000       0.000       0.000       0.000       0.000       0.000       0.000       0.000    
        0.000       0.000    
   9  -10.000     -10.000     -10.000     -10.000       7.267       7.024       9.900       7.511       5.073       9.450    
        9.561       8.700       10.68       10.60       11.41       11.96       14.10       25.85       46.05       78.66    
        59.33       42.41       32.88       33.84       35.61       48.10       44.51       45.18       53.85       58.25    
        66.83       91.07       103.7       112.7       119.1       136.9       150.2       175.1       217.1       236.4    
        257.9       243.6       238.6       0.000       0.000       0.000       0.000       0.000       0.000       0.000    
        0.000       0.000    
  10    0.000     -10.000     -10.000     -10.000       7.951       6.175       8.545       7.238       8.537       10.82    
        13.10       13.57       14.45       11.85       16.66       15.32       19.81       26.91       61.62       93.93    
        87.44       45.67       34.64       31.59       29.45       44.58       43.80       43.20       49.28       58.83    
        65.67       71.41       85.36       94.27       102.6       118.9       133.9       164.0       201.1       236.4    
        248.2       243.6       245.8       264.0       0.000       0.000       0.000       0.000       0.000       0.000    
        0.000       0.000    
  11    0.000     -10.000     -10.000     -10.000       7.900       7.244       6.667       4.400       6.727       7.829    
        18.76       11.43       13.49       11.38       13.45       20.18       29.33       44.50       72.96       86.29    
        50.75       38.24       26.52       29.47       29.15       45.43       39.43       42.10       49.10       64.05    
        101.5       92.27       94.83       100.6       118.3       128.3       141.6       150.2       163.2       177.4    
        198.8       191.8       215.6       213.3       206.2       0.000       0.000       0.000       0.000       0.000    
        0.000       0.000    
  12    0.000     -10.000     -10.000     -10.000       11.41       7.021       6.957       5.350       5.585       6.841    
        12.78       14.63       13.57       12.38       8.326       19.34       24.73       52.67       86.41       59.80    
        33.73       27.54       25.21       29.45       35.10       32.36       33.22       37.88       39.82       64.52    
        110.2       122.2       133.7       117.8       116.5       137.1       146.4       127.8       127.4       137.3    
        146.1       149.0       160.3       177.4       187.5       233.3       0.000       0.000       0.000       0.000    
        0.000       0.000    
  13    0.000     -10.000     -10.000     -10.000       11.33       8.911       10.77       5.756       5.325       7.956    
        8.476       12.47       14.98       16.80       11.17       14.07       22.78       29.53       53.70       48.44    
        15.49       26.27       27.25       31.37       34.63       25.43       30.58       36.87       31.52       55.44    
        72.66       82.70       97.74       107.6       99.80       123.0       130.5       114.8       113.1       134.0    
        138.8       148.8       144.2       128.2       173.5       262.0       271.9       0.000       0.000       0.000    
        0.000       0.000    
  14    0.000     -10.000     -10.000     -10.000       9.568       6.805       9.073       6.650       6.326       7.239    
        7.682       9.050       15.40       17.02       25.98       17.51       17.29       22.47       21.31       19.73    
        14.67       30.65       26.56       39.05       27.27       18.16       27.44       27.88       43.20       49.12    
        46.97       44.15       52.54       58.23       72.28       88.02       83.62       94.65       103.3       106.2    
        114.9       124.6       140.9       152.1       202.0       265.6       260.0       253.7       0.000       0.000    
        0.000       0.000    
  15    0.000     -10.000     -10.000     -10.000     -10.000       6.902       6.024       5.378       8.292       7.317    
        6.875       8.805       12.96       16.83       12.88       15.11       11.45       11.62       18.56       17.41    
        25.45       27.85       32.39       31.83       31.50       23.76       30.15       27.88       39.91       37.37    
        40.93       41.47       47.26       49.00       54.22       60.35       64.55       80.81       89.96       96.40    
        97.27       115.7       131.7       153.4       209.6       218.7       222.2       227.5       275.1       0.000    
        0.000       0.000    
  16    0.000     -10.000     -10.000     -10.000     -10.000       6.244       8.977       6.556       6.537       7.300    
        9.098       9.978       13.60       9.844       10.42       15.96       12.93       12.85       14.02       19.80    
        22.07       30.40       33.90       29.69       28.85       31.92       26.27       38.67       44.09       36.09    
        42.85       41.89       48.47       47.59       47.28       49.94       59.44       62.88       77.95       81.53    
        85.61       99.90       116.1       147.8       171.2       190.0       213.1       258.2       290.4       261.0    
        0.000       0.000    
  17    0.000     -10.000     -10.000     -10.000     -10.000       6.575       6.878       6.933       7.050       7.902    
        8.262       10.76       12.60       12.54       9.488       12.25       12.98       9.400       15.89       18.62    
        21.40       34.70       27.09       25.14       32.70       33.78       26.87       41.40       39.75       35.29    
        44.12       43.10       49.61       44.69       46.00       54.95       56.88       62.62       68.16       67.17    
        72.88       73.66       94.31       134.4       153.6       166.6       210.8       245.5       213.6       173.8    
        168.2       0.000    
  18    0.000     -10.000     -10.000     -10.000     -10.000       7.634       6.844       7.000       8.357       8.889    
        9.521       15.07       10.71       11.75       9.600       11.05       12.67       9.133       12.52       14.63    
        21.80       33.85       18.76       27.35       31.27       32.71       33.96       44.30       46.00       35.10    
        43.13       37.90       44.80       50.05       47.80       60.73       62.50       61.12       67.64       60.33    
        72.11       68.45       79.36       108.7       118.6       158.5       187.0       161.1       123.5       94.83    
        94.55       86.92    
  19    0.000     -10.000     -10.000     -10.000     -10.000       6.950       9.553       8.378       9.773       8.195    
        9.864       11.49       8.325       10.31       10.94       9.756       14.40       12.43       25.59       19.42    
        29.27       19.74       24.54       25.56       19.20       33.05       30.43       42.56       43.85       33.02    
        35.70       38.11       48.53       53.43       50.50       55.53       55.51       54.28       58.33       60.67    
        68.68       71.76       68.78       74.51       76.50       112.1       98.93       88.27       81.25       77.27    
        80.00       85.03    
  20    0.000     -10.000     -10.000     -10.000     -10.000       8.940       10.26       8.488       8.775       8.511    
        9.000       8.550       7.163       8.720       8.048       9.825       12.51       15.09       22.20       23.39    
        37.27       24.00       28.10       16.95       21.33       32.76       24.02       40.59       40.31       27.27    
        30.05       30.98       49.41       49.67       48.00       44.58       56.84       57.02       60.72       67.49    
        65.00       68.91       70.71       72.20       74.98       84.67       84.68       75.60       72.48       79.93    
        78.44       84.31    
  21    0.000     -10.000     -10.000     -10.000     -10.000       10.77       6.854       7.925       7.683       7.089    
        10.16       10.60       6.591       8.886       6.425       10.20       11.93       19.84       18.47       25.47    
        33.75       28.14       26.46       24.48       24.72       29.77       26.36       36.91       39.86       26.74    
        34.12       34.15       37.41       41.33       45.24       50.28       65.73       62.05       59.61       61.12    
        60.36       62.14       68.51       74.44       78.29       79.37       79.75       69.27       70.84       83.33    
        86.57       95.44    
  22    0.000     -10.000     -10.000     -10.000     -10.000       11.98       5.250       6.561       5.596       6.267    
        7.881       7.122       7.800       11.40       10.44       13.02       12.57       16.31       22.20       41.25    
        35.56       19.68       19.62       25.85       22.84       26.41       27.60       38.85       24.96       33.03    
        37.46       43.29       32.04       50.49       51.10       46.45       73.78       89.41       63.75       59.62    
        61.49       65.07       67.93       66.83       74.91       78.53       87.05       81.04       86.14       112.6    
        172.2       178.1    
  23    0.000     -10.000     -10.000     -10.000     -10.000     -10.000       7.070       7.696       6.723       6.475    
        7.537       7.976       9.140       13.46       16.37       13.51       11.98       14.34       24.40       29.28    
        24.40       25.60       21.78       30.60       28.52       29.95       31.15       39.68       33.63       35.26    
        37.40       38.47       35.49       38.90       42.88       54.47       66.80       78.81       71.16       63.80    
        73.49       64.30       60.76       72.24       78.22       73.96       77.09       95.98       119.7       145.5    
        185.6       243.8    
  24    0.000       4.400     -10.000     -10.000     -10.000     -10.000       8.605       7.044       7.975       9.805    
        8.425       10.04       11.05      10.000       12.00       11.64       13.29       11.30       30.32       21.87    
        21.40       22.76       21.90       27.93       24.92       27.15       28.02       37.38       35.49       31.30    
        31.15       31.91       36.15       41.70       38.24       41.50       56.00       62.12       82.59       93.36    
        123.9       91.27       71.15       80.76       83.67       78.44       98.17       142.8       196.7       196.0    
        221.8       252.7    
  25    3.825       11.80     -10.000     -10.000     -10.000     -10.000       8.000       7.568       7.024       7.250    
        7.956       10.62       10.19       13.73       14.60       13.07       11.43       20.27       21.02       18.83    
        19.15       23.27       20.14       19.10       21.41       24.17       30.49       39.52       41.51       35.83    
        39.18       27.59       32.42       43.95       38.34       35.02       53.45       76.95       84.60       100.2    
        131.4       137.3       124.4       127.0       137.9       181.7       170.7       201.8       246.2       243.0    
        260.7       277.1    
  26    10.33       12.00     -10.000     -10.000     -10.000     -10.000       7.800       10.41       7.349       6.289    
        9.936       9.293       9.900       11.17       13.38       16.80       17.44       23.98       18.91       21.25    
        18.46       23.20       19.07       23.31       32.04       27.50       26.44       36.71       39.28       40.54    
        41.20       30.49       32.27       38.30       30.07       33.62       55.93       79.68       94.23       110.8    
        108.2       117.8       147.5       161.4       181.5       217.8       204.0       222.3       264.5       265.4    
        268.4       263.5    
  27    12.00       12.00     -10.000     -10.000     -10.000     -10.000       5.370       6.422       7.524       8.093    
        12.84       9.475       12.83       10.30       14.07       13.47       15.80       15.56       20.36       23.76    
        24.33       19.18       20.26       27.09       29.08       25.11       27.39       32.85       37.51       30.04    
        42.18       39.17       35.73       31.36       44.55       40.73       69.18       78.76       89.40       102.2    
        122.8       148.1       159.5       160.4       166.2       173.4       203.8       243.3       259.0       264.2    
        254.5       272.7    
  28    12.00       12.00     -10.000     -10.000     -10.000     -10.000       7.093       5.100       5.122       6.111    
        7.850       8.585       9.227       11.26       13.51       14.66       24.90       17.13       17.76       26.73    
        24.18       23.14       31.39       33.38       31.51       28.47       31.40       41.91       38.38       23.44    
        41.70       38.17       24.98       33.20       46.71       39.07       86.21       84.20       85.95       96.85    
        121.5       162.5       194.1       190.4       192.5       184.4       222.1       242.9       234.8       248.7    
        266.8       302.9    
  29    12.00       12.00     -10.000     -10.000     -10.000     -10.000       8.850       5.659       6.071       8.512    
        10.98       8.156       12.50       9.262       11.95       18.67       19.41       17.24       18.18       19.75    
        19.36       20.90       26.70       29.17       32.52       32.98       40.51       41.93       38.60       36.20    
        43.63       43.15       43.80       45.43       48.62       41.02       60.13       72.98       80.78       102.3    
        139.6       202.1       210.9       220.0       195.4       200.1       216.5       228.4       252.9       276.5    
        297.8       345.7    
  30    12.00       12.00     -10.000     -10.000     -10.000     -10.000       6.805       6.450       7.265       8.422    
        8.095       9.350       11.51       15.27       17.75       18.54       16.90       19.20       22.67       20.39    
        18.96       24.55       24.41       28.68       35.30       35.56       44.56       37.00       37.05       36.29    
        44.22       45.07       49.31       44.64       38.90       51.00       56.75       77.72       90.32       112.4    
        166.7       182.4       202.2       206.1       194.1       216.4       217.2       225.6       248.8       278.0    
        325.9       376.7    
  31    12.00       12.00     -10.000     -10.000     -10.000     -10.000       8.186       6.979       7.628       11.05    
        8.775       8.409       8.214       14.32       21.98       19.60       20.38       19.38       21.12       25.89    
        26.66       27.00       31.64       32.90       41.38       41.90       41.25       37.58       39.95       41.09    
        42.80       45.43       42.34       26.62       30.76       41.89       56.38       83.42       100.9       119.9    
        157.8       154.8       178.8       191.1       193.7       203.0       230.0       250.2       254.2       269.1    
        292.9       352.6    
  32    0.000       12.00     -10.000     -10.000     -10.000       13.67       9.976       9.911       8.366       11.48    
        11.80       7.889       12.59       16.58       22.15       21.09       29.05       22.88       22.75       24.96    
        27.47       29.52       35.40       34.98       41.59       47.30       36.88       42.51       37.96       45.05    
        45.64       42.25       50.25       31.15       40.57       49.36       61.27       84.46       104.1       104.6    
        118.5       129.8       153.4       189.6       207.1       226.1       248.7       242.8       267.3       286.9    
        297.7       324.4    
  33    0.000       0.000     -10.000     -10.000     -10.000       14.70       9.256       10.51       7.325       8.756    
        11.30       11.74       13.07       18.59       20.95       28.80       23.37       24.39       27.72       24.30    
        25.73       33.67       36.91       41.10       41.83       49.63       49.72       41.42       44.83       46.61    
        48.44       49.97       55.68       47.98       53.04       64.49       73.24       72.12       94.73       102.0    
        114.6       123.1       152.4       184.6       206.0       231.2       256.6       255.8       281.8       297.8    
        319.6       344.5    
  34    0.000       0.000     -10.000     -10.000     -10.000       10.54       7.622       5.175       6.727       7.444    
        9.130       8.675       14.17       18.17       28.76       28.61       25.47       26.41       26.02       29.93    
        28.98       39.56       39.64       45.38       46.13       46.32       52.59       48.45       50.76       50.98    
        52.82       58.07       59.09       53.93       54.40       65.22       70.45       79.00       92.35       105.8    
        116.9       118.7       153.0       187.2       216.7       239.1       241.2       245.0       263.3       304.5    
        323.6       349.8    
  35    0.000       0.000       0.000       0.000       7.000       11.26       12.48       10.47       21.55       14.09    
        12.88       9.415       13.65       18.09       20.96       28.42       29.48       26.18       30.32       33.78    
        29.39       37.94       43.42       45.56       48.98       44.89       51.28       58.71       52.85       51.29    
        56.29       57.29       65.65       62.84       61.05       60.78       68.22       79.06       102.7       107.9    
        124.3       143.5       159.7       191.0       211.0       225.6       236.6       251.2       262.5       294.6    
        327.0       371.1    
  36    0.000       0.000       0.000       0.000       0.000       32.50       32.69       29.00       40.75       35.27    
        16.07       18.48       22.04       20.35       20.54       22.77       26.29       28.64       29.30       30.67    
        29.91       31.96       42.47       44.05       41.54       48.55       49.29       53.60       53.32       54.30    
        61.49       59.12       63.33       64.14       57.55       60.31       68.96       83.00       103.4       108.4    
        109.7       136.4       172.4       175.6       201.1       213.7       234.1       251.6       268.0       289.1    
        311.2       339.2    
  37    0.000       0.000       0.000       0.000       0.000       0.000       51.00       52.00       53.09       41.43    
        23.02       17.07       25.62       24.90       19.15       21.17       30.42       34.81       32.87       35.05    
        30.27       35.05       38.49       42.78       45.13       49.11       53.76       57.43       53.82       53.15    
        56.05       59.71       62.22       62.48       56.42       67.34       72.47       83.55       94.90       114.3    
        118.4       159.5       177.3       188.8       206.6       223.0       236.9       251.1       259.7       281.1    
        310.1       343.0    
  38    0.000       0.000       0.000       0.000       0.000       0.000       0.000       71.00       52.85       31.67    
        22.60       22.56       22.07       23.60       23.12       26.78       28.86       30.00       36.46       41.24    
        37.57       39.85       42.75       43.07       41.56       49.19       55.35       55.00       53.60       53.45    
        64.93       64.02       70.83       68.71       63.73       73.56       77.45       77.54       98.63       109.9    
        120.2       163.3       198.1       219.7       263.3       269.5       252.4       258.2       272.3       285.0    
        299.5       316.6    
  39    0.000       0.000       0.000       0.000       0.000       0.000       0.000       0.000       36.00       26.96    
        27.46       24.76       25.08       39.93       65.11       36.80       27.30       30.76       35.05       40.98    
        40.07       40.05       44.09       45.43       43.90       48.40       55.34       50.31       51.53       55.86    
        66.80       70.20       74.95       67.05       71.53       68.89       75.44       69.13       92.18       106.8    
        116.0       137.4       168.3       221.0       261.7       280.6       287.0       284.4       291.5       297.7    
        308.5       312.7    
  40    0.000       0.000       0.000       0.000       0.000       0.000       0.000       0.000       0.000       25.00    
        29.11       31.00       45.98       60.52       78.78       51.52       37.51       53.30       42.48       39.96    
        41.89       47.51       52.21       48.77       48.65       51.51       52.38       48.36       50.62       59.64    
        61.30       67.00       61.20       66.05       76.00       82.07       85.87       82.43       95.27       109.9    
        110.8       120.9       161.4       200.1       235.8       262.5       300.2       305.7       315.6       324.5    
        331.0       329.7    
  41    0.000       0.000       0.000       0.000       0.000       0.000       0.000       0.000       0.000       0.000    
        30.00       41.75       66.41       72.20       83.80       71.39       56.58       59.33       44.38       40.95    
        45.75       44.68       55.51       50.78       52.24       60.16       55.96       56.24       56.44       57.90    
        63.82       70.07       63.62       65.53       81.37       69.10       84.47       95.73       102.6       110.3    
        133.0       160.8       163.1       185.0       215.5       236.4       281.1       332.3       371.8       374.2    
        362.0       352.8    
  42    0.000       0.000       0.000       0.000       0.000       0.000       0.000       0.000       0.000       0.000    
        0.000       44.00       60.50       77.22       89.98       90.26       83.98       69.44       49.07       46.92    
        51.02       55.67       53.49       57.57       56.98       58.84       60.62       59.32       58.97       60.07    
        63.56       68.24       73.98       65.59       76.67       71.78       80.73       102.1       105.7       104.6    
        113.4       153.8       189.8       209.7       258.1       275.9       302.8       354.3       408.2       428.2    
        393.5       389.3    
  43    0.000       0.000       0.000       0.000       0.000       0.000       0.000       0.000       0.000       0.000    
        0.000       0.000       70.00       87.06       93.31       105.9       122.3       80.62       62.72       50.78    
        54.05       58.08       56.49       57.07       58.00       59.78       61.90       63.85       59.07       60.98    
        56.47       70.25       73.49       77.09       85.62       85.05       82.83       93.80       102.6       85.17    
        111.2       150.0       203.5       235.4       272.9       298.0       329.4       354.3       377.6       410.5    
        393.9       398.5    
  44    0.000       0.000       0.000       0.000       0.000       0.000       0.000       0.000       0.000       0.000    
        0.000       0.000       0.000       95.00       106.8       113.5       123.6       112.8       68.83       51.28    
        57.00       61.16       61.37       60.50       59.86       58.14       63.00       63.47       65.00       61.37    
        66.25       68.95       70.80       78.07       85.38       83.87       86.25       101.3       108.0       118.0    
        130.1       171.0       196.4       239.1       277.6       310.2       320.2       331.9       350.6       372.8    
        402.4       433.8    
  45    0.000       0.000       0.000       0.000       0.000       0.000       0.000       0.000       0.000       0.000    
        0.000       0.000       0.000       0.000       111.0       104.5       108.3       112.4       98.27       69.64    
        61.71       59.59       62.97       61.59       62.40       69.36       67.96       65.46       68.11       69.12    
        73.10       70.88       72.37       75.93       86.80       86.68       78.89       95.34       110.0       126.8    
        155.3       166.8       206.7       256.3       278.8       289.3       321.7       324.3       344.5       390.5    
        428.6       500.4    
  46    0.000       0.000       0.000       0.000       0.000       0.000       0.000       0.000       0.000       0.000    
        0.000       0.000       0.000       0.000       0.000      100.00       105.1       117.2       122.1       95.91    
        65.02       61.95       63.59       61.13       67.64       69.80       65.17       72.21       73.60       73.10    
        71.95       77.20       77.07       81.83       83.07       85.31       84.27       90.93       109.8       128.6    
        128.3       152.8       221.8       264.5       267.3       282.2       309.5       342.2       369.4       381.5    
        430.6       495.8    
  47    0.000       0.000       0.000       0.000       0.000       0.000       0.000       0.000       0.000       0.000    
        0.000       0.000       0.000       0.000       0.000       0.000       124.0       115.9       120.6       79.69    
        65.28       61.14       64.60       64.15       65.00       68.41       68.75       72.38       72.68       76.87    
        79.07       80.84       76.17       81.55       81.20       91.56       86.52       86.60       123.6       134.6    
        129.5       151.7       188.3       227.3       256.5       282.2       321.4       381.8       420.0       423.6    
        434.8       451.1    
  48    0.000       0.000       0.000       0.000       0.000       0.000       0.000       0.000       0.000       0.000    
        0.000       0.000       0.000       0.000       0.000       0.000       0.000       98.00       91.65       77.09    
        58.02       63.24       65.63       66.38       69.20       70.25       71.77       77.67       74.84       72.15    
        79.09       81.24       84.07       87.07       83.28       89.42       94.05       86.93       117.6       128.3    
        117.6       166.8       195.2       239.5       262.0       288.4       342.0       412.3       413.8       445.2    
        493.9       482.8    
  49    0.000       0.000       0.000       0.000       0.000       0.000       0.000       0.000       0.000       0.000    
        0.000       0.000       0.000       0.000       0.000       0.000       0.000       0.000       83.00       78.00    
        64.24       65.15       62.56       69.32       71.90       73.04       73.56       81.39       80.75       81.95    
        78.49       80.12       82.45       85.84       85.65       76.88       90.00       90.22       117.4       135.5    
        127.5       160.9       218.3       255.6       276.5       323.7       366.3       402.1       433.4       468.3    
        508.7       527.1    
  50    0.000       0.000       0.000       0.000       0.000       0.000       0.000       0.000       0.000       0.000    
        0.000       0.000       0.000       0.000       0.000       0.000       0.000       0.000       0.000       69.00    
        78.57       79.73       68.71       68.30       70.98       72.24       78.34       81.47       81.90       77.39    
        81.10       91.42       95.11       92.93       84.57       81.15       94.40       96.82       108.5       122.8    
        143.0       168.5       202.4       258.9       295.2       333.7       381.3       421.8       458.5       484.8    
        527.0       554.7    
  51    0.000       0.000       0.000       0.000       0.000       0.000       0.000       0.000       0.000       0.000    
        0.000       0.000       0.000       0.000       0.000       0.000       0.000       0.000       0.000       0.000    
        116.0       101.4       91.07       74.88       72.61       73.84       76.85       84.07       85.27       81.44    
        85.50       90.32       96.46       100.1       89.17       91.20       104.9       104.7       110.3       118.9    
        156.6       181.3       222.8       297.8       332.8       338.4       380.3       409.2       426.6       441.0    
        511.2       505.6    
  52    0.000       0.000       0.000       0.000       0.000       0.000       0.000       0.000       0.000       0.000    
        0.000       0.000       0.000       0.000       0.000       0.000       0.000       0.000       0.000       0.000    
        0.000       123.0       110.8       94.39       77.05       74.49       79.02       86.07       83.24       88.43    
        90.41       82.00       89.49       83.41       91.71       89.87       98.68       103.6       110.1       116.0    
        152.8       176.3       230.7       279.1       297.1       327.1       349.3       370.8       408.6       447.6    
        443.8       404.2    
  53    0.000       0.000       0.000       0.000       0.000       0.000       0.000       0.000       0.000       0.000    
        0.000       0.000       0.000       0.000       0.000       0.000       0.000       0.000       0.000       0.000    
        0.000       0.000       110.0       96.29       97.76       76.38       76.49       92.30       93.82       87.12    
        86.82       94.66       97.26       97.93       98.56       94.69       101.4       103.0       112.3       115.0    
        133.2       159.8       201.6       243.4       269.9       302.8       327.7       365.0       378.7       375.3    
        355.1       337.0    
  54    0.000       0.000       0.000       0.000       0.000       0.000       0.000       0.000       0.000       0.000    
        0.000       0.000       0.000       0.000       0.000       0.000       0.000       0.000       0.000       0.000    
        0.000       0.000       0.000       98.50       103.1       96.54       96.90       96.11       97.71       86.78    
        92.40       96.22       103.9       112.8       118.7       114.2       113.2       114.6       112.8       115.9    
        132.7       153.7       185.0       215.2       248.6       271.7       305.0       312.5       304.7       289.9    
        281.4       313.8    
  55    0.000       0.000       0.000       0.000       0.000       0.000       0.000       0.000       0.000       0.000    
        0.000       0.000       0.000       0.000       0.000       0.000       0.000       0.000       0.000       0.000    
        0.000       0.000       0.000       0.000       105.0       107.5       108.7       117.2       121.6       115.0    
        101.5       102.6       106.4       113.0       120.1       116.0       115.4       112.6       113.7       111.2    
        117.6       148.4       174.6       197.1       221.4       244.4       251.9       259.0       241.1       250.5    
        289.6       334.8    
  56    0.000       0.000       0.000       0.000       0.000       0.000       0.000       0.000       0.000       0.000    
        0.000       0.000       0.000       0.000       0.000       0.000       0.000       0.000       0.000       0.000    
        0.000       0.000       0.000       0.000       0.000       127.0       131.7       142.0       146.7       131.8    
        108.1       108.5       108.3       112.2       117.5       118.8       114.7       114.9       114.1       116.0    
        121.3       129.9       152.8       177.4       190.4       206.4       210.0       212.6       217.6       238.2    
        266.6       282.5    
  57    0.000       0.000       0.000       0.000       0.000       0.000       0.000       0.000       0.000       0.000    
        0.000       0.000       0.000       0.000       0.000       0.000       0.000       0.000       0.000       0.000    
        0.000       0.000       0.000       0.000       0.000       0.000       154.0       145.3       139.1       113.1    
        112.4       111.3       112.0       119.7       126.8       123.7       113.0       115.9       116.0       117.9    
        125.2       118.5       127.5       147.9       166.1       184.5       186.6       191.8       190.7       209.4    
        238.0       289.8    
  58    0.000       0.000       0.000       0.000       0.000       0.000       0.000       0.000       0.000       0.000    
        0.000       0.000       0.000       0.000       0.000       0.000       0.000       0.000       0.000       0.000    
        0.000       0.000       0.000       0.000       0.000       0.000       0.000       141.0       122.1       115.3    
        112.9       115.8       121.1       127.8       123.4       122.2       115.1       112.2       118.3       117.1    
        126.8       121.9       128.5       140.8       153.3       160.2       166.6       174.2       201.1       228.3    
        264.4       323.8    
  59    0.000       0.000       0.000       0.000       0.000       0.000       0.000       0.000       0.000       0.000    
        0.000       0.000       0.000       0.000       0.000       0.000       0.000       0.000       0.000       0.000    
        0.000       0.000       0.000       0.000       0.000       0.000       0.000       0.000       120.0       115.0    
        115.4       117.5       117.0       116.6       116.6       122.6       118.9       122.1       121.0       115.4    
        126.0       124.8       131.6       131.9       143.3       155.5       173.4       191.9       206.3       233.7    
        275.1       351.3    
  60    0.000       0.000       0.000       0.000       0.000       0.000       0.000       0.000       0.000       0.000    
        0.000       0.000       0.000       0.000       0.000       0.000       0.000       0.000       0.000       0.000    
        0.000       0.000       0.000       0.000       0.000       0.000       0.000       0.000       0.000       119.0    
        111.0       117.0       117.0       119.4       120.0       122.5       123.8       125.1       118.7       120.3    
        124.6       127.0       133.5       134.8       136.5       150.4       167.8       180.9       203.5       224.5    
        267.7       325.4    
  61    0.000       0.000       0.000       0.000       0.000       0.000       0.000       0.000       0.000       0.000    
        0.000       0.000       0.000       0.000       0.000       0.000       0.000       0.000       0.000       0.000    
        0.000       0.000       0.000       0.000       0.000       0.000       0.000       0.000       0.000       0.000    
        110.0       115.4       116.1       116.3       119.2       123.9       122.0       121.6       126.6       121.8    
        124.2       129.4       134.3       135.8       137.0       142.1       162.3       184.0       200.2       225.7    
        250.7       280.3    
  62    0.000       0.000       0.000       0.000       0.000       0.000       0.000       0.000       0.000       0.000    
        0.000       0.000       0.000       0.000       0.000       0.000       0.000       0.000       0.000       0.000    
        0.000       0.000       0.000       0.000       0.000       0.000       0.000       0.000       0.000       0.000    
        0.000       117.5       119.3       120.9       121.9       122.7       123.5       126.2       128.0       134.8    
        134.0       129.8       134.0       133.7       136.7       142.9       157.1       186.9       232.6       274.6    
        285.3       0.000    
  63    0.000       0.000       0.000       0.000       0.000       0.000       0.000       0.000       0.000       0.000    
        0.000       0.000       0.000       0.000       0.000       0.000       0.000       0.000       0.000       0.000    
        0.000       0.000       0.000       0.000       0.000       0.000       0.000       0.000       0.000       0.000    
        0.000       0.000       125.0       125.9       122.7       124.9       125.5       126.8       131.0       139.6    
        136.5       137.3       134.0       139.5       138.2       141.2       154.2       204.4       257.2       274.8    
        0.000       0.000    
  64    0.000       0.000       0.000       0.000       0.000       0.000       0.000       0.000       0.000       0.000    
        0.000       0.000       0.000       0.000       0.000       0.000       0.000       0.000       0.000       0.000    
        0.000       0.000       0.000       0.000       0.000       0.000       0.000       0.000       0.000       0.000    
        0.000       0.000       0.000       124.0       130.6       125.6       129.4       127.2       131.7       135.5    
        133.2       137.7       137.4       138.0       145.1       146.8       162.5       205.4       269.0       0.000    
        0.000       0.000    
  65    0.000       0.000       0.000       0.000       0.000       0.000       0.000       0.000       0.000       0.000    
        0.000       0.000       0.000       0.000       0.000       0.000       0.000       0.000       0.000       0.000    
        0.000       0.000       0.000       0.000       0.000       0.000       0.000       0.000       0.000       0.000    
        0.000       0.000       0.000       0.000       124.0       125.1       134.8       135.5       137.6       137.3    
        139.8       143.2       140.4       142.5       143.5       145.8       163.0       200.2       0.000       0.000    
        0.000       0.000    
  66    0.000       0.000       0.000       0.000       0.000       0.000       0.000       0.000       0.000       0.000    
        0.000       0.000       0.000       0.000       0.000       0.000       0.000       0.000       0.000       0.000    
        0.000       0.000       0.000       0.000       0.000       0.000       0.000       0.000       0.000       0.000    
        0.000       0.000       0.000       0.000       0.000       128.0       135.3       139.5       139.0       136.3    
        142.0       145.2       144.0       146.7       144.9       146.9       149.8       0.000       0.000       0.000    
        0.000       0.000    
  67    0.000       0.000       0.000       0.000       0.000       0.000       0.000       0.000       0.000       0.000    
        0.000       0.000       0.000       0.000       0.000       0.000       0.000       0.000       0.000       0.000    
        0.000       0.000       0.000       0.000       0.000       0.000       0.000       0.000       0.000       0.000    
        0.000       0.000       0.000       0.000       0.000       0.000       133.0       136.8       138.1       143.4    
        147.5       147.9       144.3       146.9       147.8       147.8       0.000       0.000       0.000       0.000    
        0.000       0.000    
  68    0.000       0.000       0.000       0.000       0.000       0.000       0.000       0.000       0.000       0.000    
        0.000       0.000       0.000       0.000       0.000       0.000       0.000       0.000       0.000       0.000    
        0.000       0.000       0.000       0.000       0.000       0.000       0.000       0.000       0.000       0.000    
        0.000       0.000       0.000       0.000       0.000       0.000       0.000       143.0       147.0       144.5    
        150.0       148.1       150.9       152.5       150.2       0.000       0.000       0.000       0.000       0.000    
        0.000       0.000    



             MODEL LAYER BOTTOM EL. FOR LAYER   1
 READING ON UNIT   12 WITH FORMAT: (FREE)              

            1           2           3           4           5           6           7           8           9          10
           11          12          13          14          15          16          17          18          19          20
           21          22          23          24          25          26          27          28          29          30
           31          32          33          34          35          36          37          38          39          40
           41          42          43          44          45          46          47          48          49          50
           51          52
 ........................................................................................................................
   1   -45.00      -45.00      -45.00      -45.00      -45.00      -45.00      -45.00      -45.00       12.92       11.98    
        3.900       18.92       11.71       23.88       9.850       5.533       14.68       11.93      -1.643      -8.380    
       -12.66      -13.60      -10.29      -6.133      -1.700       6.512       21.84       27.92       25.33       36.98    
        47.72       63.93       74.90       94.50       114.0      -45.00      -45.00      -45.00      -45.00      -45.00    
       -45.00      -45.00      -45.00      -45.00      -45.00      -45.00      -45.00      -45.00      -45.00      -45.00    
       -45.00      -45.00    
   2   -45.00      -45.00      -45.00      -45.00      -45.00      -45.00      -45.00      -8.417       10.68       12.50    
        14.40       10.49       9.732       19.75       12.05       12.12       5.268      -14.40      -4.617      -14.33    
       -14.82      -18.51      -7.909      -4.537      -3.488       3.311       7.761       18.83       24.54       33.72    
        57.82       49.02       81.02       97.07       96.58       91.48      -45.00      -45.00      -45.00      -45.00    
       -45.00      -45.00      -45.00      -45.00      -45.00      -45.00      -45.00      -45.00      -45.00      -45.00    
       -45.00      -45.00    
   3   -45.00      -45.00      -45.00      -45.00      -45.00      -45.00     -0.6667      -19.43      -16.80      -17.32    
       -23.80      -34.24      -22.02      -2.293      -13.70      -15.69      -12.09      -25.83      -27.04      -28.55    
       -20.46      -24.02      -10.54      -1.556       4.000       3.550       12.44       19.93       25.60       34.00    
        48.47       47.09       52.12       76.90       85.27       98.12       124.3      -45.00      -45.00      -45.00    
       -45.00      -45.00      -45.00      -45.00      -45.00      -45.00      -45.00      -45.00      -45.00      -45.00    
       -45.00      -45.00    
   4   -45.00      -45.00      -45.00      -45.00      -45.00      -22.64      -16.07      -30.56      -36.70      -36.02    
       -38.86      -36.92      -36.85      -37.17      -38.13      -38.70      -34.68      -32.14      -26.57      -28.00    
       -25.83      -19.18      -10.63     -0.1707       4.225       8.044       17.46       23.92       29.93       33.76    
        41.20       47.40       45.39       72.40       83.82       97.29       150.2       189.5      -45.00      -45.00    
       -45.00      -45.00      -45.00      -45.00      -45.00      -45.00      -45.00      -45.00      -45.00      -45.00    
       -45.00      -45.00    
   5   -45.00      -45.00      -45.00      -45.00      -31.17      -29.02      -30.95      -36.05      -36.80      -38.56    
       -41.00      -38.98      -34.87      -37.60      -37.38      -36.49      -36.40      -34.11      -30.21      -27.47    
       -27.47      -14.47      -8.780      -2.900       4.049       7.489       15.05       23.71       33.83       33.87    
        43.88       58.78       65.37       72.34       94.22       107.6       143.5       171.8       198.4      -45.00    
       -45.00      -45.00      -45.00      -45.00      -45.00      -45.00      -45.00      -45.00      -45.00      -45.00    
       -45.00      -45.00    
   6   -55.00      -55.00      -55.00      -55.00      -36.81      -34.63      -36.92      -37.71      -37.95      -36.04    
       -36.93      -36.49      -37.72      -37.48      -39.73      -36.17      -35.50      -33.30      -26.37      -30.42    
       -20.36      -15.32      -10.18      -3.951       3.125       8.467       14.93       14.17       24.18       37.60    
        49.12       66.62       88.18       92.51       92.83       101.3       134.5       174.4       210.5       208.3    
        154.0      -45.00      -45.00      -45.00      -45.00      -45.00      -45.00      -45.00      -45.00      -45.00    
       -45.00      -45.00    
   7   -55.00      -55.00      -55.00      -55.00      -36.07      -35.05      -36.32      -32.02      -39.32      -39.30    
       -34.02      -34.50      -36.82      -34.46      -33.32      -26.47      -28.33      -20.12       5.875      -7.463    
       -21.51      -20.90       3.279       7.022       3.319       5.450       11.46       11.95       21.23       43.20    
        65.00       63.23       85.70       83.17       87.93       105.0       110.1       111.5       121.6       125.5    
        126.6      -45.00      -45.00      -45.00      -45.00      -45.00      -45.00      -45.00      -45.00      -45.00    
       -45.00      -45.00    
   8   -55.00      -55.00      -55.00      -55.00      -37.30      -35.80      -35.93      -34.00      -40.05      -39.20    
       -36.90      -37.43      -32.40      -36.53      -34.05      -33.76      -29.66      -16.00       4.537       22.07    
       -9.045      -16.62      -6.977      0.4444      -2.050       2.171       5.975       5.378       19.33       39.76    
        43.68       60.24       80.44       94.03       85.05       90.41       98.67       126.2       131.3       138.5    
        130.8       142.9      -45.00      -45.00      -45.00      -45.00      -45.00      -45.00      -45.00      -45.00    
       -45.00      -45.00    
   9   -55.00      -55.00      -55.00      -55.00      -37.73      -37.98      -35.10      -37.49      -39.93      -35.55    
       -35.44      -36.30      -34.32      -34.40      -33.59      -33.04      -30.90      -19.15       1.048       33.66    
        14.33      -2.585      -12.12      -11.16      -9.390       3.100     -0.4889      0.1837       8.854       13.25    
        21.83       46.07       58.67       67.73       74.11       91.94       105.2       130.1       172.1       191.4    
        212.9       198.6       193.6      -45.00      -45.00      -45.00      -45.00      -45.00      -45.00      -45.00    
       -45.00      -45.00    
  10   -45.00      -55.00      -55.00      -55.00      -37.05      -38.83      -36.45      -37.76      -36.46      -34.18    
       -31.90      -31.43      -30.55      -33.15      -28.34      -29.68      -25.19      -18.09       16.62       48.92    
        42.44      0.6750      -10.36      -13.41      -15.55     -0.4222      -1.196      -1.805       4.275       13.83    
        20.67       26.41       40.36       49.27       57.58       73.88       88.85       119.0       156.1       191.4    
        203.2       198.6       200.8       219.0      -45.00      -45.00      -45.00      -45.00      -45.00      -45.00    
       -45.00      -45.00    
  11   -45.00      -55.00      -55.00      -55.00      -37.10      -37.76      -38.33      -40.60      -38.27      -37.17    
       -26.24      -33.58      -31.51      -33.62      -31.55      -24.82      -15.67     -0.5000       27.96       41.29    
        5.750      -6.756      -18.48      -15.53      -15.85      0.4286      -5.568      -2.900       4.098       19.05    
        56.48       47.27       49.83       55.62       73.26       83.29       96.62       105.2       118.2       132.4    
        153.8       146.8       170.6       168.3       161.2      -45.00      -45.00      -45.00      -45.00      -45.00    
       -45.00      -45.00    
  12   -45.00      -55.00      -55.00      -55.00      -33.59      -37.98      -38.04      -39.65      -39.41      -38.16    
       -32.22      -30.37      -31.43      -32.62      -36.67      -25.66      -20.27       7.667       41.41       14.80    
       -11.27      -17.46      -19.79      -15.55      -9.902      -12.64      -11.77      -7.122      -5.178       19.52    
        65.18       77.20       88.72       72.78       71.54       92.07       101.4       82.75       82.39       92.32    
        101.1       104.0       115.3       132.4       142.5       188.3      -45.00      -45.00      -45.00      -45.00    
       -45.00      -45.00    
  13   -45.00      -55.00      -55.00      -55.00      -33.67      -36.09      -34.22      -39.24      -39.67      -37.04    
       -36.52      -32.53      -30.02      -28.20      -33.83      -30.92      -22.22      -15.47       8.698       3.444    
       -29.51      -18.73      -17.75      -13.63      -10.37      -19.57      -14.42      -8.133      -13.48       10.44    
        27.66       37.70       52.74       62.57       54.80       78.02       85.45       69.76       68.05       89.02    
        93.81       103.8       99.22       83.23       128.5       217.0       226.9      -45.00      -45.00      -45.00    
       -45.00      -45.00    
  14   -45.00      -55.00      -55.00      -55.00      -35.43      -38.20      -35.93      -38.35      -38.67      -37.76    
       -37.32      -35.95      -29.60      -27.98      -19.02      -27.49      -27.71      -22.53      -23.69      -25.27    
       -30.33      -14.35      -18.44      -5.950      -17.73      -26.84      -17.56      -17.12      -1.800       4.122    
        1.975     -0.8537       7.540       13.23       27.27       43.02       38.62       49.65       58.29       61.24    
        69.94       79.60       95.85       107.2       157.0       220.6       215.0       208.7      -45.00      -45.00    
       -45.00      -45.00    
  15   -45.00      -55.00      -55.00      -55.00      -55.00      -38.10      -38.98      -39.62      -36.71      -37.68    
       -38.12      -36.20      -32.04      -28.17      -32.12      -29.89      -33.55      -33.38      -26.44      -27.59    
       -19.55      -17.15      -12.61      -13.17      -13.50      -21.24      -14.85      -17.12      -5.093      -7.634    
       -4.067      -3.532       2.256       4.000       9.220       15.35       19.55       35.81       44.96       51.40    
        52.27       70.71       86.68       108.4       164.6       173.7       177.2       182.5       230.1      -45.00    
       -45.00      -45.00    
  16   -45.00      -55.00      -55.00      -55.00      -55.00      -38.76      -36.02      -38.44      -38.46      -37.70    
       -35.90      -35.02      -31.40      -35.16      -34.58      -29.04      -32.08      -32.15      -30.98      -25.20    
       -22.93      -14.60      -11.10      -15.31      -16.15      -13.07      -18.73      -6.333     -0.9111      -8.909    
       -2.146      -3.111       3.475       2.585       2.275       4.936       14.44       17.88       32.95       36.53    
        40.61       54.90       71.10       102.8       126.2       145.0       168.1       213.2       245.4       216.0    
       -45.00      -45.00    
  17   -45.00      -55.00      -55.00      -55.00      -55.00      -38.42      -38.12      -38.07      -37.95      -37.10    
       -36.74      -34.24      -32.40      -32.46      -35.51      -32.75      -32.02      -35.60      -29.11      -26.38    
       -23.60      -10.30      -17.91      -19.86      -12.30      -11.22      -18.13      -3.604      -5.250      -9.707    
      -0.8837      -1.905       4.610     -0.3095      1.0000       9.955       11.88       17.62       23.16       22.17    
        27.88       28.66       49.31       89.42       108.7       121.6       165.8       200.5       168.6       128.8    
        123.2      -45.00    
  18   -45.00      -55.00      -55.00      -55.00      -55.00      -37.37      -38.16      -38.00      -36.64      -36.11    
       -35.48      -29.92      -34.29      -33.25      -35.40      -33.95      -32.33      -35.87      -32.48      -30.37    
       -23.20      -11.15      -26.24      -17.65      -13.73      -12.29      -11.04     -0.7000      1.0000      -9.900    
       -1.867      -7.095     -0.2000       5.047       2.800       15.73       17.50       16.12       22.64       15.33    
        27.11       23.45       34.36       63.70       73.59       113.5       142.0       116.1       78.47       49.83    
        49.55       41.92    
  19   -45.00      -55.00      -55.00      -55.00      -55.00      -38.05      -35.45      -36.62      -35.23      -36.80    
       -35.14      -33.51      -36.67      -34.69      -34.06      -35.24      -30.60      -32.57      -19.41      -25.58    
       -15.73      -25.26      -20.46      -19.44      -25.80      -11.95      -14.57      -2.439      -1.150      -11.98    
       -9.304      -6.886       3.525       8.432       5.500       10.52       10.51       9.277       13.33       15.67    
        23.68       26.76       23.77       29.51       31.50       67.12       53.93       43.27       36.25       32.27    
        35.00       40.03    
  20   -45.00      -55.00      -55.00      -55.00      -55.00      -36.06      -34.74      -36.51      -36.22      -36.49    
       -36.00      -36.45      -37.84      -36.28      -36.95      -35.17      -32.49      -29.91      -22.80      -21.61    
       -7.727      -21.00      -16.90      -28.05      -23.67      -12.24      -20.98      -4.415      -4.689      -17.73    
       -14.95      -14.02       4.415       4.667       3.000     -0.4186       11.84       12.02       15.73       22.49    
        20.00       23.91       25.71       27.20       29.98       39.67       39.68       30.60       27.48       34.93    
        33.44       39.31    
  21   -45.00      -55.00      -55.00      -55.00      -55.00      -34.23      -38.15      -37.08      -37.32      -37.91    
       -34.84      -34.40      -38.41      -36.11      -38.58      -34.80      -33.07      -25.16      -26.53      -19.53    
       -11.25      -16.86      -18.54      -20.52      -20.28      -15.23      -18.64      -8.091      -5.136      -18.26    
       -10.88      -10.85      -7.591      -3.674      0.2444       5.279       20.73       17.05       14.61       16.12    
        15.36       17.14       23.51       29.44       33.29       34.37       34.75       24.27       25.84       38.33    
        41.57       50.44    
  22   -45.00      -55.00      -55.00      -55.00      -55.00      -33.02      -39.75      -38.44      -39.40      -38.73    
       -37.12      -37.88      -37.20      -33.60      -34.56      -31.98      -32.43      -28.69      -22.80      -3.750    
       -9.444      -25.32      -25.38      -19.15      -22.16      -18.59      -17.40      -6.146      -20.04      -11.98    
       -7.537      -1.714      -12.96       5.488       6.098       1.450       28.78       44.41       18.75       14.62    
        16.49       20.07       22.92       21.83       29.91       33.53       42.05       36.04       41.14       67.60    
        127.2       133.1    
  23   -45.00      -55.00      -55.00      -55.00      -55.00      -55.00      -37.93      -37.30      -38.28      -38.53    
       -37.46      -37.02      -35.86      -31.54      -28.63      -31.49      -33.02      -30.66      -20.60      -15.72    
       -20.60      -19.40      -23.22      -14.40      -16.48      -15.05      -13.85      -5.318      -11.37      -9.738    
       -7.600      -6.532      -9.512      -6.098      -2.125       9.467       21.80       33.81       26.16       18.80    
        28.49       19.30       15.76       27.24       33.22       28.96       32.09       50.98       74.68       100.5    
        140.6       198.8    
  24   -45.00      -40.60      -55.00      -55.00      -55.00      -55.00      -36.40      -37.96      -37.03      -35.20    
       -36.58      -34.96      -33.95      -35.00      -33.00      -33.36      -31.71      -33.70      -14.68      -23.13    
       -23.60      -22.24      -23.10      -17.07      -20.08      -17.85      -16.98      -7.617      -9.511      -13.70    
       -13.85      -13.09      -8.854      -3.300      -6.756      -3.500       11.00       17.12       37.59       48.36    
        78.93       46.27       26.15       35.76       38.67       33.44       53.17       97.79       151.7       151.0    
        176.8       207.7    
  25   -41.17      -33.20      -55.00      -55.00      -55.00      -55.00      -37.00      -37.43      -37.98      -37.75    
       -37.04      -34.38      -34.81      -31.27      -30.40      -31.93      -33.58      -24.73      -23.98      -26.17    
       -25.85      -21.73      -24.86      -25.90      -23.59      -20.83      -14.51      -5.477      -3.488      -9.175    
       -5.822      -17.41      -12.57      -1.047      -6.660      -9.976       8.450       31.95       39.60       55.20    
        86.41       92.27       79.40       81.97       92.90       136.7       125.7       156.8       201.2       198.0    
        215.7       232.1    
  26   -34.67      -33.00      -55.00      -55.00      -55.00      -55.00      -37.20      -34.59      -37.65      -38.71    
       -35.06      -35.71      -35.10      -33.83      -31.62      -28.20      -27.56      -21.02      -26.09      -23.75    
       -26.54      -21.80      -25.93      -21.69      -12.96      -17.50      -18.56      -8.293      -5.725      -4.463    
       -3.800      -14.51      -12.73      -6.698      -14.93      -11.38       10.93       34.68       49.23       65.84    
        63.24       72.84       102.5       116.4       136.5       172.8       159.0       177.3       219.5       220.4    
        223.4       218.5    
  27   -33.00      -33.00      -55.00      -55.00      -55.00      -55.00      -39.63      -38.58      -37.48      -36.91    
       -32.16      -35.53      -32.17      -34.70      -30.93      -31.53      -29.20      -29.44      -24.64      -21.24    
       -20.67      -25.82      -24.74      -17.91      -15.93      -19.89      -17.61      -12.15      -7.488      -14.96    
       -2.822      -5.833      -9.268      -13.64     -0.4500      -4.268       24.17       33.76       44.40       57.20    
        77.78       103.1       114.5       115.4       121.2       128.4       158.8       198.3       214.0       219.2    
        209.5       227.7    
  28   -33.00      -33.00      -55.00      -55.00      -55.00      -55.00      -37.91      -39.90      -39.88      -38.89    
       -37.15      -36.41      -35.77      -33.74      -31.49      -30.34      -20.10      -27.87      -27.24      -18.27    
       -20.82      -21.86      -13.61      -11.62      -13.49      -16.53      -13.60      -3.093      -6.622      -21.56    
       -3.300      -6.829      -20.02      -11.80       1.707      -5.932       41.21       39.20       40.95       51.85    
        76.48       117.5       149.1       145.4       147.5       139.4       177.1       197.9       189.8       203.7    
        221.8       257.9    
  29   -33.00      -33.00      -55.00      -55.00      -55.00      -55.00      -36.15      -39.34      -38.93      -36.49    
       -34.02      -36.84      -32.50      -35.74      -33.05      -26.33      -25.59      -27.76      -26.82      -25.25    
       -25.64      -24.10      -18.30      -15.83      -12.48      -12.02      -4.489      -3.070      -6.400      -8.800    
       -1.366      -1.850      -1.200      0.4318       3.622      -3.976       15.13       27.98       35.78       57.29    
        94.58       157.1       165.9       175.0       150.4       155.1       171.5       183.4       207.9       231.5    
        252.8       300.7    
  30   -33.00      -33.00      -55.00      -55.00      -55.00      -55.00      -38.20      -38.55      -37.73      -36.58    
       -36.90      -35.65      -33.49      -29.73      -27.25      -26.46      -28.10      -25.80      -22.33      -24.61    
       -26.04      -20.45      -20.59      -16.32      -9.700      -9.442     -0.4390      -8.000      -7.955      -8.707    
      -0.7750      6.8182E-02   4.306     -0.3571      -6.100       6.000       11.75       32.72       45.32       67.43    
        121.7       137.4       157.2       161.1       149.1       171.4       172.2       180.6       203.8       233.0    
        280.9       331.7    
  31   -33.00      -33.00      -55.00      -55.00      -55.00      -55.00      -36.81      -38.02      -37.37      -33.95    
       -36.22      -36.59      -36.79      -30.67      -23.02      -25.40      -24.62      -25.62      -23.88      -19.11    
       -18.34      -18.00      -13.36      -12.10      -3.625      -3.098      -3.750      -7.422      -5.049      -3.907    
       -2.200      0.4255      -2.659      -18.38      -14.24      -3.111       11.38       38.42       55.89       74.89    
        112.8       109.8       133.8       146.1       148.7       158.0       185.0       205.2       209.2       224.1    
        247.9       307.6    
  32   -45.00      -33.00      -55.00      -55.00      -55.00      -31.33      -35.02      -35.09      -36.63      -33.53    
       -33.20      -37.11      -32.41      -28.42      -22.85      -23.91      -15.95      -22.12      -22.25      -20.04    
       -17.53      -15.48      -9.600      -10.02      -3.415       2.300      -8.122      -2.489      -7.044      4.7619E-02
       0.6429      -2.750       5.250      -13.85      -4.429       4.362       16.27       39.46       59.07       59.58    
        73.49       84.78       108.4       144.6       162.1       181.1       203.7       197.8       222.3       241.9    
        252.7       279.4    
  33   -45.00      -45.00      -55.00      -55.00      -55.00      -30.30      -35.74      -34.49      -37.67      -36.24    
       -33.70      -33.26      -31.93      -26.41      -24.05      -16.20      -21.63      -20.61      -17.28      -20.70    
       -19.27      -11.32      -8.089      -3.902      -3.175       4.628       4.720      -3.581     -0.1750       1.610    
        3.444       4.975       10.68       2.977       8.040       19.49       28.24       27.12       49.73       56.98    
        69.56       78.11       107.4       139.6       161.0       186.2       211.6       210.8       236.8       252.8    
        274.6       299.5    
  34   -45.00      -45.00      -55.00      -55.00      -55.00      -34.46      -37.38      -39.83      -38.27      -37.56    
       -35.87      -36.33      -30.83      -26.83      -16.24      -16.39      -19.53      -18.59      -18.98      -15.07    
       -16.02      -5.439      -5.356      0.3810       1.133       1.318       7.591       3.450       5.756       5.976    
        7.818       13.07       14.09       8.930       9.395       20.22       25.45       34.00       47.35       60.80    
        71.89       73.73       108.0       142.2       171.7       194.1       196.2       200.0       218.3       259.5    
        278.6       304.8    
  35   -45.00      -45.00      -45.00      -45.00      -38.00      -33.74      -32.52      -34.53      -23.45      -30.91    
       -32.12      -35.59      -31.35      -26.91      -24.04      -16.58      -15.52      -18.82      -14.68      -11.23    
       -15.61      -7.064      -1.578      0.5581       3.976     -0.1111       6.275       13.71       7.850       6.286    
        11.29       12.29       20.65       17.84       16.05       15.77       23.22       34.06       57.73       62.92    
        79.34       98.51       114.7       146.0       166.0       180.6       191.6       206.2       217.5       249.6    
        282.0       326.1    
  36   -45.00      -45.00      -45.00      -45.00      -45.00      -12.50      -12.31      -16.00      -4.250      -9.733    
       -28.93      -26.52      -22.96      -24.65      -24.46      -22.23      -18.71      -16.36      -15.70      -14.33    
       -15.09      -13.04      -2.525     -0.9512      -3.463       3.545       4.293       8.605       8.319       9.295    
        16.49       14.12       18.33       19.14       12.55       15.31       23.96       38.00       58.42       63.39    
        64.72       91.40       127.4       130.6       156.1       168.7       189.1       206.6       223.0       244.1    
        266.2       294.2    
  37   -45.00      -45.00      -45.00      -45.00      -45.00      -45.00       6.000       7.000       8.091      -3.571    
       -21.98      -27.93      -19.38      -20.10      -25.85      -23.83      -14.58      -10.19      -12.13      -9.955    
       -14.73      -9.950      -6.512      -2.225      0.1333       4.114       8.756       12.43       8.822       8.146    
        11.05       14.71       17.22       17.48       11.42       22.34       27.47       38.55       49.90       69.35    
        73.43       114.5       132.3       143.8       161.6       178.0       191.9       206.1       214.7       236.1    
        265.1       298.0    
  38   -45.00      -45.00      -45.00      -45.00      -45.00      -45.00      -45.00       26.00       7.853      -13.33    
       -22.40      -22.44      -22.93      -21.40      -21.88      -18.22      -16.14      -15.00      -8.537      -3.756    
       -7.432      -5.146      -2.250      -1.933      -3.438       4.190       10.35      10.000       8.605       8.450    
        19.93       19.02       25.83       23.71       18.73       28.56       32.45       32.54       53.63       64.88    
        75.24       118.3       153.1       174.7       218.3       224.5       207.4       213.2       227.3       240.1    
        254.5       271.6    
  39   -45.00      -45.00      -45.00      -45.00      -45.00      -45.00      -45.00      -45.00      -9.000      -18.04    
       -17.54      -20.24      -19.92      -5.071       20.11      -8.204      -17.70      -14.24      -9.950      -4.022    
       -4.927      -4.952     -0.9111      0.4255      -1.098       3.400       10.34       5.311       6.525       10.86    
        21.80       25.20       29.95       22.05       26.52       23.89       30.44       24.13       47.18       61.82    
        71.05       92.45       123.3       176.0       216.7       235.6       242.0       239.4       246.5       252.7    
        263.5       267.7    
  40   -45.00      -45.00      -45.00      -45.00      -45.00      -45.00      -45.00      -45.00      -45.00      -20.00    
       -15.89      -14.00      0.9778       15.52       33.78       6.523      -7.488       8.300      -2.524      -5.043    
       -3.111       2.512       7.214       3.773       3.650       6.512       7.381       3.362       5.622       14.64    
        16.30       22.00       16.20       21.05       31.00       37.07       40.87       37.42       50.27       64.90    
        65.85       75.90       116.4       155.1       190.8       217.5       255.2       260.7       270.6       279.5    
        286.0       284.7    
  41   -45.00      -45.00      -45.00      -45.00      -45.00      -45.00      -45.00      -45.00      -45.00      -45.00    
       -15.00      -3.250       21.41       27.20       38.80       26.39       11.57       14.33     -0.6200      -4.047    
       0.7500     -0.3171       10.51       5.775       7.244       15.16       10.96       11.24       11.44       12.90    
        18.82       25.07       18.62       20.53       36.37       24.10       39.47       50.73       57.64       65.32    
        87.95       115.8       118.1       140.0       170.5       191.4       236.1       287.3       326.8       329.2    
        317.0       307.8    
  42   -45.00      -45.00      -45.00      -45.00      -45.00      -45.00      -45.00      -45.00      -45.00      -45.00    
       -45.00     -1.0000       15.50       32.22       44.98       45.26       38.98       24.44       4.068       1.925    
        6.024       10.67       8.488       12.57       11.98       13.84       15.62       14.32       13.98       15.07    
        18.56       23.24       28.98       20.59       31.67       26.77       35.73       57.14       60.65       59.58    
        68.43       108.8       144.8       164.7       213.1       230.9       257.8       309.3       363.2       383.2    
        348.5       344.3    
  43   -45.00      -45.00      -45.00      -45.00      -45.00      -45.00      -45.00      -45.00      -45.00      -45.00    
       -45.00      -45.00       25.00       42.06       48.31       60.86       77.27       35.62       17.73       5.780    
        9.050       13.08       11.49       12.07       13.00       14.78       16.90       18.85       14.07       15.98    
        11.47       25.25       28.49       32.09       40.62       40.05       37.83       48.80       57.60       40.17    
        66.15       105.0       158.5       190.4       227.9       253.0       284.4       309.3       332.6       365.5    
        348.9       353.5    
  44   -45.00      -45.00      -45.00      -45.00      -45.00      -45.00      -45.00      -45.00      -45.00      -45.00    
       -45.00      -45.00      -45.00       50.00       61.79       68.46       78.62       67.84       23.83       6.279    
        12.00       16.16       16.37       15.50       14.86       13.14       18.00       18.47       20.00       16.37    
        21.25       23.95       25.80       33.07       40.38       38.87       41.25       56.34       63.00       73.00    
        85.11       126.0       151.4       194.1       232.6       265.2       275.2       286.9       305.6       327.8    
        357.4       388.8    
  45   -45.00      -45.00      -45.00      -45.00      -45.00      -45.00      -45.00      -45.00      -45.00      -45.00    
       -45.00      -45.00      -45.00      -45.00       66.00       59.54       63.33       67.40       53.27       24.64    
        16.71       14.59       17.98       16.59       17.40       24.36       22.96       20.46       23.11       24.12    
        28.10       25.88       27.37       30.93       41.80       41.67       33.89       50.34       65.00       81.80    
        110.3       121.8       161.7       211.3       233.8       244.3       276.7       279.3       299.5       345.5    
        383.6       455.4    
  46   -45.00      -45.00      -45.00      -45.00      -45.00      -45.00      -45.00      -45.00      -45.00      -45.00    
       -45.00      -45.00      -45.00      -45.00      -45.00       55.00       60.12       72.19       77.05       50.91    
        20.02       16.95       18.59       16.13       22.64       24.80       20.17       27.21       28.60       28.10    
        26.95       32.20       32.07       36.83       38.08       40.31       39.27       45.92       64.83       83.56    
        83.26       107.8       176.8       219.5       222.3       237.2       264.5       297.2       324.4       336.5    
        385.6       450.8    
  47   -45.00      -45.00      -45.00      -45.00      -45.00      -45.00      -45.00      -45.00      -45.00      -45.00    
       -45.00      -45.00      -45.00      -45.00      -45.00      -45.00       79.00       70.86       75.59       34.69    
        20.27       16.14       19.60       19.15       20.00       23.41       23.75       27.38       27.68       31.87    
        34.07       35.84       31.17       36.55       36.20       46.56       41.52       41.60       78.59       89.58    
        84.50       106.7       143.3       182.3       211.5       237.2       276.4       336.8       375.0       378.6    
        389.8       406.1    
  48   -45.00      -45.00      -45.00      -45.00      -45.00      -45.00      -45.00      -45.00      -45.00      -45.00    
       -45.00      -45.00      -45.00      -45.00      -45.00      -45.00      -45.00       53.00       46.65       32.09    
        13.02       18.24       20.63       21.38       24.20       25.25       26.77       32.67       29.84       27.15    
        34.09       36.24       39.08       42.07       38.28       44.42       49.05       41.93       72.62       83.28    
        72.61       121.8       150.2       194.5       217.0       243.4       297.0       367.3       368.8       400.2    
        448.9       437.8    
  49   -45.00      -45.00      -45.00      -45.00      -45.00      -45.00      -45.00      -45.00      -45.00      -45.00    
       -45.00      -45.00      -45.00      -45.00      -45.00      -45.00      -45.00      -45.00       38.00       33.00    
        19.24       20.15       17.56       24.32       26.90       28.04       28.56       36.39       35.75       36.95    
        33.49       35.12       37.45       40.84       40.65       31.88       45.00       45.22       72.43       90.54    
        82.53       115.9       173.3       210.6       231.5       278.7       321.3       357.1       388.4       423.3    
        463.7       482.1    
  50   -45.00      -45.00      -45.00      -45.00      -45.00      -45.00      -45.00      -45.00      -45.00      -45.00    
       -45.00      -45.00      -45.00      -45.00      -45.00      -45.00      -45.00      -45.00      -45.00       24.00    
        33.57       34.73       23.71       23.30       25.98       27.24       33.34       36.47       36.90       32.39    
        36.10       46.42       50.11       47.93       39.58       36.15       49.40       51.82       63.53       77.82    
        97.95       123.5       157.4       213.9       250.2       288.7       336.3       376.8       413.5       439.8    
        482.0       509.7    
  51   -45.00      -45.00      -45.00      -45.00      -45.00      -45.00      -45.00      -45.00      -45.00      -45.00    
       -45.00      -45.00      -45.00      -45.00      -45.00      -45.00      -45.00      -45.00      -45.00      -45.00    
        71.00       56.35       46.07       29.88       27.61       28.84       31.85       39.07       40.27       36.44    
        40.50       45.32       51.46       55.09       44.17       46.20       59.89       59.67       65.28       73.90    
        111.6       136.3       177.8       252.8       287.8       293.4       335.3       364.2       381.6       396.0    
        466.2       460.6    
  52   -45.00      -45.00      -45.00      -45.00      -45.00      -45.00      -45.00      -45.00      -45.00      -45.00    
       -45.00      -45.00      -45.00      -45.00      -45.00      -45.00      -45.00      -45.00      -45.00      -45.00    
       -45.00       78.00       65.79       49.39       32.05       29.49       34.02       41.07       38.24       43.42    
        45.41       37.00       44.49       38.41       46.71       44.87       53.68       58.59       65.07       70.95    
        107.8       131.3       185.7       234.1       252.1       282.1       304.3       325.8       363.6       402.6    
        398.8       359.2    
  53   -45.00      -45.00      -45.00      -45.00      -45.00      -45.00      -45.00      -45.00      -45.00      -45.00    
       -45.00      -45.00      -45.00      -45.00      -45.00      -45.00      -45.00      -45.00      -45.00      -45.00    
       -45.00      -45.00       65.00       51.29       52.76       31.38       31.49       47.30       48.82       42.12    
        41.83       49.66       52.26       52.93       53.56       49.69       56.36       57.97       67.32       69.95    
        88.20       114.8       156.6       198.4       224.9       257.8       282.7       320.0       333.7       330.3    
        310.1       292.0    
  54   -45.00      -45.00      -45.00      -45.00      -45.00      -45.00      -45.00      -45.00      -45.00      -45.00    
       -45.00      -45.00      -45.00      -45.00      -45.00      -45.00      -45.00      -45.00      -45.00      -45.00    
       -45.00      -45.00      -45.00       53.50       58.06       51.54       51.90       51.11       52.71       41.78    
        47.40       51.22       58.86       67.85       73.66       69.22       68.25       69.63       67.79       70.94    
        87.74       108.7       140.0       170.2       203.6       226.7       260.0       267.5       259.7       244.9    
        236.4       268.8    
  55   -45.00      -45.00      -45.00      -45.00      -45.00      -45.00      -45.00      -45.00      -45.00      -45.00    
       -45.00      -45.00      -45.00      -45.00      -45.00      -45.00      -45.00      -45.00      -45.00      -45.00    
       -45.00      -45.00      -45.00      -45.00       60.00       62.54       63.71       72.22       76.56       70.02    
        56.49       57.64       61.38       68.02       75.12       70.98       70.44       67.56       68.68       66.23    
        72.61       103.4       129.6       152.1       176.4       199.4       206.9       214.0       196.1       205.5    
        244.6       289.8    
  56   -45.00      -45.00      -45.00      -45.00      -45.00      -45.00      -45.00      -45.00      -45.00      -45.00    
       -45.00      -45.00      -45.00      -45.00      -45.00      -45.00      -45.00      -45.00      -45.00      -45.00    
       -45.00      -45.00      -45.00      -45.00      -45.00       82.00       86.74       96.96       101.7       86.83    
        63.11       63.50       63.34       67.25       72.48       73.84       69.70       69.93       69.09       71.00    
        76.35       84.88       107.8       132.4       145.4       161.4       165.0       167.6       172.6       193.2    
        221.6       237.5    
  57   -45.00      -45.00      -45.00      -45.00      -45.00      -45.00      -45.00      -45.00      -45.00      -45.00    
       -45.00      -45.00      -45.00      -45.00      -45.00      -45.00      -45.00      -45.00      -45.00      -45.00    
       -45.00      -45.00      -45.00      -45.00      -45.00      -45.00       109.0       100.3       94.10       68.12    
        67.41       66.29       67.00       74.68       81.78       78.66       68.03       70.93       71.00       72.88    
        80.16       73.54       82.47       102.9       121.1       139.5       141.6       146.8       145.7       164.4    
        193.0       244.8    
  58   -45.00      -45.00      -45.00      -45.00      -45.00      -45.00      -45.00      -45.00      -45.00      -45.00    
       -45.00      -45.00      -45.00      -45.00      -45.00      -45.00      -45.00      -45.00      -45.00      -45.00    
       -45.00      -45.00      -45.00      -45.00      -45.00      -45.00      -45.00       96.00       77.14       70.31    
        67.88       70.78       76.12       82.84       78.44       77.25       70.15       67.16       73.27       72.07    
        81.79       76.91       83.50       95.76       108.3       115.2       121.6       129.2       156.1       183.3    
        219.4       278.8    
  59   -45.00      -45.00      -45.00      -45.00      -45.00      -45.00      -45.00      -45.00      -45.00      -45.00    
       -45.00      -45.00      -45.00      -45.00      -45.00      -45.00      -45.00      -45.00      -45.00      -45.00    
       -45.00      -45.00      -45.00      -45.00      -45.00      -45.00      -45.00      -45.00       75.00       70.00    
        70.44       72.47       71.95       71.60       71.57       77.59       73.91       77.10       75.95       70.39    
        80.95       79.79       86.56       86.95       98.29       110.5       128.4       146.9       161.3       188.7    
        230.1       306.3    
  60   -45.00      -45.00      -45.00      -45.00      -45.00      -45.00      -45.00      -45.00      -45.00      -45.00    
       -45.00      -45.00      -45.00      -45.00      -45.00      -45.00      -45.00      -45.00      -45.00      -45.00    
       -45.00      -45.00      -45.00      -45.00      -45.00      -45.00      -45.00      -45.00      -45.00       74.00    
        66.04       72.02       72.02       74.40       75.02       77.47       78.79       80.05       73.66       75.30    
        79.60       81.95       88.48       89.76       91.51       105.4       122.8       135.9       158.5       179.5    
        222.7       280.4    
  61   -45.00      -45.00      -45.00      -45.00      -45.00      -45.00      -45.00      -45.00      -45.00      -45.00    
       -45.00      -45.00      -45.00      -45.00      -45.00      -45.00      -45.00      -45.00      -45.00      -45.00    
       -45.00      -45.00      -45.00      -45.00      -45.00      -45.00      -45.00      -45.00      -45.00      -45.00    
        65.00       70.40       71.07       71.33       74.17       78.88       76.98       76.61       81.55       76.84    
        79.22       84.42       89.27       90.77       91.95       97.07       117.3       139.0       155.2       180.7    
        205.7       235.3    
  62   -45.00      -45.00      -45.00      -45.00      -45.00      -45.00      -45.00      -45.00      -45.00      -45.00    
       -45.00      -45.00      -45.00      -45.00      -45.00      -45.00      -45.00      -45.00      -45.00      -45.00    
       -45.00      -45.00      -45.00      -45.00      -45.00      -45.00      -45.00      -45.00      -45.00      -45.00    
       -45.00       72.50       74.27       75.88       76.88       77.71       78.46       81.18       82.95       89.80    
        89.00       84.75       89.00       88.73       91.68       97.88       112.1       141.9       187.6       229.6    
        240.3      -45.00    
  63   -45.00      -45.00      -45.00      -45.00      -45.00      -45.00      -45.00      -45.00      -45.00      -45.00    
       -45.00      -45.00      -45.00      -45.00      -45.00      -45.00      -45.00      -45.00      -45.00      -45.00    
       -45.00      -45.00      -45.00      -45.00      -45.00      -45.00      -45.00      -45.00      -45.00      -45.00    
       -45.00      -45.00       80.00       80.86       77.72       79.93       80.50       81.76       86.00       94.57    
        91.50       92.27       89.00       94.45       93.22       96.24       109.2       159.4       212.2       229.8    
       -45.00      -45.00    
  64   -45.00      -45.00      -45.00      -45.00      -45.00      -45.00      -45.00      -45.00      -45.00      -45.00    
       -45.00      -45.00      -45.00      -45.00      -45.00      -45.00      -45.00      -45.00      -45.00      -45.00    
       -45.00      -45.00      -45.00      -45.00      -45.00      -45.00      -45.00      -45.00      -45.00      -45.00    
       -45.00      -45.00      -45.00       79.00       85.62       80.58       84.44       82.24       86.71       90.47    
        88.17       92.72       92.40       92.95       100.1       101.8       117.5       160.4       224.0      -45.00    
       -45.00      -45.00    
  65   -45.00      -45.00      -45.00      -45.00      -45.00      -45.00      -45.00      -45.00      -45.00      -45.00    
       -45.00      -45.00      -45.00      -45.00      -45.00      -45.00      -45.00      -45.00      -45.00      -45.00    
       -45.00      -45.00      -45.00      -45.00      -45.00      -45.00      -45.00      -45.00      -45.00      -45.00    
       -45.00      -45.00      -45.00      -45.00       79.00       80.07       89.78       90.55       92.63       92.29    
        94.84       98.20       95.44       97.46       98.50       100.8       118.0       155.2      -45.00      -45.00    
       -45.00      -45.00    
  66   -45.00      -45.00      -45.00      -45.00      -45.00      -45.00      -45.00      -45.00      -45.00      -45.00    
       -45.00      -45.00      -45.00      -45.00      -45.00      -45.00      -45.00      -45.00      -45.00      -45.00    
       -45.00      -45.00      -45.00      -45.00      -45.00      -45.00      -45.00      -45.00      -45.00      -45.00    
       -45.00      -45.00      -45.00      -45.00      -45.00       83.00       90.32       94.47       93.98       91.31    
        97.03       100.2       99.00       101.7       99.85       101.9       104.8      -45.00      -45.00      -45.00    
       -45.00      -45.00    
  67   -45.00      -45.00      -45.00      -45.00      -45.00      -45.00      -45.00      -45.00      -45.00      -45.00    
       -45.00      -45.00      -45.00      -45.00      -45.00      -45.00      -45.00      -45.00      -45.00      -45.00    
       -45.00      -45.00      -45.00      -45.00      -45.00      -45.00      -45.00      -45.00      -45.00      -45.00    
       -45.00      -45.00      -45.00      -45.00      -45.00      -45.00       88.00       91.79       93.12       98.45    
        102.5       102.9       99.28       101.9       102.8       102.8      -45.00      -45.00      -45.00      -45.00    
       -45.00      -45.00    
  68   -45.00      -45.00      -45.00      -45.00      -45.00      -45.00      -45.00      -45.00      -45.00      -45.00    
       -45.00      -45.00      -45.00      -45.00      -45.00      -45.00      -45.00      -45.00      -45.00      -45.00    
       -45.00      -45.00      -45.00      -45.00      -45.00      -45.00      -45.00      -45.00      -45.00      -45.00    
       -45.00      -45.00      -45.00      -45.00      -45.00      -45.00      -45.00       98.00       102.0       99.54    
        105.0       103.1       105.9       107.5       105.2      -45.00      -45.00      -45.00      -45.00      -45.00    
       -45.00      -45.00    



             MODEL LAYER BOTTOM EL. FOR LAYER   2
 READING ON UNIT   12 WITH FORMAT: (FREE)              

            1           2           3           4           5           6           7           8           9          10
           11          12          13          14          15          16          17          18          19          20
           21          22          23          24          25          26          27          28          29          30
           31          32          33          34          35          36          37          38          39          40
           41          42          43          44          45          46          47          48          49          50
           51          52
 ........................................................................................................................
   1   -90.00      -90.00      -90.00      -90.00      -90.00      -90.00      -90.00      -90.00      -32.08      -33.03    
       -41.10      -26.08      -33.29      -21.12      -35.15      -39.47      -30.32      -33.08      -46.64      -53.38    
       -57.66      -58.60      -55.29      -51.13      -46.70      -38.49      -23.16      -17.08      -19.67      -8.024    
        2.725       18.93       29.90       49.50       68.97      -90.00      -90.00      -90.00      -90.00      -90.00    
       -90.00      -90.00      -90.00      -90.00      -90.00      -90.00      -90.00      -90.00      -90.00      -90.00    
       -90.00      -90.00    
   2   -90.00      -90.00      -90.00      -90.00      -90.00      -90.00      -90.00      -53.42      -34.33      -32.50    
       -30.60      -34.51      -35.27      -25.25      -32.95      -32.88      -39.73      -59.40      -49.62      -59.33    
       -59.83      -63.51      -52.91      -49.54      -48.49      -41.69      -37.24      -26.17      -20.46      -11.27    
        12.82       4.024       36.02       52.07       51.58       46.48      -90.00      -90.00      -90.00      -90.00    
       -90.00      -90.00      -90.00      -90.00      -90.00      -90.00      -90.00      -90.00      -90.00      -90.00    
       -90.00      -90.00    
   3   -90.00      -90.00      -90.00      -90.00      -90.00      -90.00      -45.67      -64.43      -61.80      -62.32    
       -68.80      -79.24      -67.03      -47.29      -58.70      -60.69      -57.09      -70.83      -72.04      -73.55    
       -65.46      -69.03      -55.54      -46.56      -41.00      -41.45      -32.56      -25.07      -19.40      -11.00    
        3.469       2.089       7.122       31.90       40.27       53.12       79.28      -90.00      -90.00      -90.00    
       -90.00      -90.00      -90.00      -90.00      -90.00      -90.00      -90.00      -90.00      -90.00      -90.00    
       -90.00      -90.00    
   4   -90.00      -90.00      -90.00      -90.00      -90.00      -67.64      -61.07      -75.56      -81.70      -81.02    
       -83.86      -81.93      -81.85      -82.17      -83.13      -83.70      -79.68      -77.14      -71.57      -73.00    
       -70.83      -64.18      -55.63      -45.17      -40.78      -36.96      -27.54      -21.08      -15.07      -11.24    
       -3.805       2.400      0.3902       27.40       38.83       52.29       105.2       144.5      -90.00      -90.00    
       -90.00      -90.00      -90.00      -90.00      -90.00      -90.00      -90.00      -90.00      -90.00      -90.00    
       -90.00      -90.00    
   5   -90.00      -90.00      -90.00      -90.00      -76.17      -74.02      -75.95      -81.05      -81.80      -83.56    
       -86.00      -83.98      -79.87      -82.60      -82.38      -81.49      -81.40      -79.11      -75.21      -72.47    
       -72.47      -59.47      -53.78      -47.90      -40.95      -37.51      -29.95      -21.29      -11.17      -11.13    
       -1.125       13.78       20.37       27.34       49.22       62.64       98.48       126.8       153.4      -90.00    
       -90.00      -90.00      -90.00      -90.00      -90.00      -90.00      -90.00      -90.00      -90.00      -90.00    
       -90.00      -90.00    
   6  -100.00     -100.00     -100.00     -100.00      -81.81      -79.63      -81.93      -82.71      -82.95      -81.04    
       -81.93      -81.49      -82.72      -82.48      -84.73      -81.18      -80.50      -78.30      -71.37      -75.43    
       -65.36      -60.32      -55.17      -48.95      -41.88      -36.53      -30.07      -30.83      -20.82      -7.400    
        4.122       21.62       43.18       47.51       47.83       56.35       89.49       129.4       165.5       163.3    
        109.0      -90.00      -90.00      -90.00      -90.00      -90.00      -90.00      -90.00      -90.00      -90.00    
       -90.00      -90.00    
   7  -100.00     -100.00     -100.00     -100.00      -81.07      -80.05      -81.32      -77.02      -84.32      -84.30    
       -79.02      -79.50      -81.82      -79.46      -78.32      -71.47      -73.33      -65.12      -39.12      -52.46    
       -66.51      -65.90      -41.72      -37.98      -41.68      -39.55      -33.54      -33.05      -23.77      -1.805    
        20.00       18.23       40.70       38.17       42.92       59.98       65.07       66.51       76.60       80.48    
        81.59      -90.00      -90.00      -90.00      -90.00      -90.00      -90.00      -90.00      -90.00      -90.00    
       -90.00      -90.00    
   8  -100.00     -100.00     -100.00     -100.00      -82.30      -80.80      -80.93      -79.00      -85.05      -84.20    
       -81.90      -82.43      -77.40      -81.53      -79.05      -78.76      -74.66      -61.00      -40.46      -22.93    
       -54.05      -61.62      -51.98      -44.56      -47.05      -42.83      -39.03      -39.62      -25.67      -5.244    
       -1.317       15.24       35.44       49.03       40.05       45.41       53.67       81.18       86.34       93.51    
        85.78       97.88      -90.00      -90.00      -90.00      -90.00      -90.00      -90.00      -90.00      -90.00    
       -90.00      -90.00    
   9  -100.00     -100.00     -100.00     -100.00      -82.73      -82.98      -80.10      -82.49      -84.93      -80.55    
       -80.44      -81.30      -79.32      -79.40      -78.59      -78.04      -75.90      -64.15      -43.95      -11.34    
       -30.67      -47.59      -57.12      -56.16      -54.39      -41.90      -45.49      -44.82      -36.15      -31.75    
       -23.17       1.068       13.68       22.73       29.11       46.94       60.20       85.15       127.1       146.4    
        167.9       153.6       148.6      -90.00      -90.00      -90.00      -90.00      -90.00      -90.00      -90.00    
       -90.00      -90.00    
  10   -90.00     -100.00     -100.00     -100.00      -82.05      -83.82      -81.45      -82.76      -81.46      -79.18    
       -76.90      -76.43      -75.55      -78.15      -73.34      -74.68      -70.19      -63.09      -28.38       3.925    
       -2.561      -44.33      -55.36      -58.41      -60.55      -45.42      -46.20      -46.80      -40.72      -31.17    
       -24.33      -18.59      -4.644       4.267       12.58       28.88       43.85       74.00       111.1       146.4    
        158.2       153.6       155.8       174.0      -90.00      -90.00      -90.00      -90.00      -90.00      -90.00    
       -90.00      -90.00    
  11   -90.00     -100.00     -100.00     -100.00      -82.10      -82.76      -83.33      -85.60      -83.27      -82.17    
       -71.24      -78.57      -76.51      -78.62      -76.55      -69.82      -60.67      -45.50      -17.04      -3.707    
       -39.25      -51.76      -63.48      -60.53      -60.85      -44.57      -50.57      -47.90      -40.90      -25.95    
        11.48       2.273       4.829       10.62       28.26       38.29       51.62       60.24       73.21       87.37    
        108.8       101.8       125.6       123.3       116.2      -90.00      -90.00      -90.00      -90.00      -90.00    
       -90.00      -90.00    
  12   -90.00     -100.00     -100.00     -100.00      -78.59      -82.98      -83.04      -84.65      -84.41      -83.16    
       -77.22      -75.37      -76.43      -77.62      -81.67      -70.66      -65.28      -37.33      -3.585      -30.20    
       -56.27      -62.46      -64.79      -60.55      -54.90      -57.64      -56.78      -52.12      -50.18      -25.48    
        20.17       32.20       43.72       27.78       26.54       47.07       56.44       37.75       37.39       47.33    
        56.10       58.98       70.30       87.40       97.51       143.3      -90.00      -90.00      -90.00      -90.00    
       -90.00      -90.00    
  13   -90.00     -100.00     -100.00     -100.00      -78.67      -81.09      -79.22      -84.24      -84.68      -82.04    
       -81.52      -77.53      -75.02      -73.20      -78.83      -75.93      -67.22      -60.47      -36.30      -41.56    
       -74.51      -63.73      -62.75      -58.63      -55.37      -64.57      -59.42      -53.13      -58.48      -34.56    
       -17.34      -7.300       7.744       17.57       9.800       33.02       40.45       24.76       23.05       44.02    
        48.81       58.84       54.22       38.23       83.50       172.0       181.9      -90.00      -90.00      -90.00    
       -90.00      -90.00    
  14   -90.00     -100.00     -100.00     -100.00      -80.43      -83.20      -80.93      -83.35      -83.67      -82.76    
       -82.32      -80.95      -74.60      -72.98      -64.03      -72.49      -72.71      -67.53      -68.69      -70.27    
       -75.33      -59.35      -63.44      -50.95      -62.73      -71.84      -62.56      -62.12      -46.80      -40.88    
       -43.03      -45.85      -37.46      -31.77      -17.73      -1.976      -6.378       4.650       13.29       16.24    
        24.94       34.60       50.85       62.15       112.0       175.6       170.0       163.7      -90.00      -90.00    
       -90.00      -90.00    
  15   -90.00     -100.00     -100.00     -100.00     -100.00      -83.10      -83.98      -84.62      -81.71      -82.68    
       -83.12      -81.20      -77.04      -73.18      -77.12      -74.89      -78.55      -78.38      -71.44      -72.59    
       -64.55      -62.15      -57.61      -58.17      -58.50      -66.24      -59.85      -62.12      -50.09      -52.63    
       -49.07      -48.53      -42.74      -41.00      -35.78      -29.65      -25.45      -9.186     -4.4444E-02   6.404    
        7.268       25.71       41.67       63.40       119.6       128.7       132.2       137.5       185.1      -90.00    
       -90.00      -90.00    
  16   -90.00     -100.00     -100.00     -100.00     -100.00      -83.76      -81.02      -83.44      -83.46      -82.70    
       -80.90      -80.02      -76.40      -80.16      -79.58      -74.04      -77.07      -77.15      -75.97      -70.20    
       -67.93      -59.60      -56.10      -60.31      -61.15      -58.08      -63.73      -51.33      -45.91      -53.91    
       -47.15      -48.11      -41.53      -42.41      -42.72      -40.06      -30.56      -27.12      -12.05      -8.467    
       -4.390       9.900       26.10       57.83       81.24       99.95       123.1       168.2       200.4       171.0    
       -90.00      -90.00    
  17   -90.00     -100.00     -100.00     -100.00     -100.00      -83.43      -83.12      -83.07      -82.95      -82.10    
       -81.74      -79.24      -77.40      -77.46      -80.51      -77.75      -77.02      -80.60      -74.11      -71.38    
       -68.60      -55.30      -62.91      -64.86      -57.30      -56.22      -63.13      -48.60      -50.25      -54.71    
       -45.88      -46.90      -40.39      -45.31      -44.00      -35.05      -33.12      -27.38      -21.84      -22.83    
       -17.12      -16.34       4.306       44.42       63.65       76.59       120.8       155.5       123.6       83.82    
        78.17      -90.00    
  18   -90.00     -100.00     -100.00     -100.00     -100.00      -82.37      -83.16      -83.00      -81.64      -81.11    
       -80.48      -74.93      -79.29      -78.25      -80.40      -78.95      -77.33      -80.87      -77.48      -75.37    
       -68.20      -56.15      -71.24      -62.65      -58.73      -57.29      -56.04      -45.70      -44.00      -54.90    
       -46.87      -52.10      -45.20      -39.95      -42.20      -29.27      -27.50      -28.88      -22.36      -29.67    
       -17.89      -21.55      -10.64       18.70       28.59       68.51       97.05       71.07       33.47       4.829    
        4.545      -3.080    
  19   -90.00     -100.00     -100.00     -100.00     -100.00      -83.05      -80.45      -81.62      -80.23      -81.80    
       -80.14      -78.51      -81.68      -79.69      -79.06      -80.24      -75.60      -77.57      -64.41      -70.57    
       -60.73      -70.26      -65.46      -64.44      -70.80      -56.95      -59.57      -47.44      -46.15      -56.98    
       -54.30      -51.89      -41.47      -36.57      -39.50      -34.47      -34.49      -35.72      -31.67      -29.33    
       -21.32      -18.24      -21.23      -15.49      -13.50       22.12       8.933      -1.732      -8.750      -12.73    
      -10.000      -4.975    
  20   -90.00     -100.00     -100.00     -100.00     -100.00      -81.06      -79.74      -81.51      -81.22      -81.49    
       -81.00      -81.45      -82.84      -81.28      -81.95      -80.18      -77.49      -74.91      -67.80      -66.61    
       -52.73      -66.00      -61.90      -73.05      -68.68      -57.24      -65.98      -49.41      -49.69      -62.73    
       -59.95      -59.03      -40.59      -40.33      -42.00      -45.42      -33.16      -32.98      -29.27      -22.51    
       -25.00      -21.09      -19.29      -17.80      -15.02      -5.333      -5.317      -14.40      -17.52      -10.07    
       -11.56      -5.689    
  21   -90.00     -100.00     -100.00     -100.00     -100.00      -79.23      -83.15      -82.07      -82.32      -82.91    
       -79.84      -79.40      -83.41      -81.11      -83.57      -79.80      -78.07      -70.16      -71.53      -64.53    
       -56.25      -61.86      -63.54      -65.53      -65.28      -60.23      -63.64      -53.09      -50.14      -63.26    
       -55.88      -55.85      -52.59      -48.67      -44.76      -39.72      -24.27      -27.95      -30.39      -28.88    
       -29.64      -27.86      -21.49      -15.56      -11.71      -10.63      -10.25      -20.73      -19.16      -6.667    
       -3.432       5.439    
  22   -90.00     -100.00     -100.00     -100.00     -100.00      -78.02      -84.75      -83.44      -84.40      -83.73    
       -82.12      -82.88      -82.20      -78.60      -79.56      -76.97      -77.43      -73.69      -67.80      -48.75    
       -54.44      -70.32      -70.38      -64.15      -67.16      -63.59      -62.40      -51.15      -65.04      -56.97    
       -52.54      -46.71      -57.96      -39.51      -38.90      -43.55      -16.22     -0.5854      -26.25      -30.38    
       -28.51      -24.93      -22.08      -23.17      -15.09      -11.48      -2.951      -8.957      -3.857       22.60    
        82.24       88.10    
  23   -90.00     -100.00     -100.00     -100.00     -100.00     -100.00      -82.93      -82.30      -83.28      -83.53    
       -82.46      -82.02      -80.86      -76.54      -73.63      -76.49      -78.02      -75.66      -65.60      -60.72    
       -65.60      -64.40      -68.22      -59.40      -61.48      -60.05      -58.85      -50.32      -56.37      -54.74    
       -52.60      -51.53      -54.51      -51.10      -47.12      -35.53      -23.20      -11.19      -18.84      -26.20    
       -16.51      -25.70      -29.24      -17.76      -11.77      -16.04      -12.91       5.978       29.67       55.54    
        95.65       153.8    
  24   -90.00      -85.60     -100.00     -100.00     -100.00     -100.00      -81.40      -82.96      -82.03      -80.20    
       -81.57      -79.96      -78.95      -80.00      -78.00      -78.36      -76.71      -78.70      -59.68      -68.13    
       -68.60      -67.24      -68.10      -62.07      -65.07      -62.85      -61.97      -52.62      -54.51      -58.70    
       -58.85      -58.09      -53.85      -48.30      -51.76      -48.50      -34.00      -27.88      -7.415       3.356    
        33.92       1.268      -18.85      -9.245      -6.333      -11.56       8.167       52.79       106.7       106.0    
        131.8       162.7    
  25   -86.18      -78.20     -100.00     -100.00     -100.00     -100.00      -82.00      -82.43      -82.98      -82.75    
       -82.04      -79.38      -79.81      -76.28      -75.40      -76.93      -78.57      -69.73      -68.98      -71.17    
       -70.85      -66.73      -69.86      -70.90      -68.59      -65.83      -59.51      -50.48      -48.49      -54.17    
       -50.82      -62.41      -57.58      -46.05      -51.66      -54.98      -36.55      -13.05      -5.400       10.20    
        41.41       47.27       34.40       36.97       47.90       91.68       80.67       111.8       156.2       153.0    
        170.7       187.1    
  26   -79.67      -78.00     -100.00     -100.00     -100.00     -100.00      -82.20      -79.59      -82.65      -83.71    
       -80.06      -80.71      -80.10      -78.83      -76.62      -73.20      -72.56      -66.02      -71.09      -68.75    
       -71.54      -66.80      -70.93      -66.69      -57.96      -62.50      -63.56      -53.29      -50.72      -49.46    
       -48.80      -59.51      -57.73      -51.70      -59.93      -56.38      -34.07      -10.32       4.227       20.84    
        18.24       27.84       57.51       71.44       91.53       127.8       114.0       132.3       174.5       175.4    
        178.4       173.5    
  27   -78.00      -78.00     -100.00     -100.00     -100.00     -100.00      -84.63      -83.58      -82.48      -81.91    
       -77.16      -80.53      -77.17      -79.70      -75.93      -76.53      -74.20      -74.44      -69.64      -66.24    
       -65.68      -70.82      -69.74      -62.91      -60.92      -64.89      -62.61      -57.15      -52.49      -59.96    
       -47.82      -50.83      -54.27      -58.64      -45.45      -49.27      -20.83      -11.24     -0.6000       12.20    
        32.78       58.09       69.46       70.43       76.20       83.36       113.8       153.3       169.0       174.2    
        164.5       182.7    
  28   -78.00      -78.00     -100.00     -100.00     -100.00     -100.00      -82.91      -84.90      -84.88      -83.89    
       -82.15      -81.41      -80.77      -78.74      -76.49      -75.34      -65.10      -72.87      -72.24      -63.27    
       -65.82      -66.86      -58.61      -56.62      -58.49      -61.53      -58.60      -48.09      -51.62      -66.56    
       -48.30      -51.83      -65.02      -56.80      -43.29      -50.93      -3.787      -5.795      -4.049       6.850    
        31.48       72.45       104.1       100.4       102.5       94.42       132.1       152.9       144.8       158.7    
        176.8       212.9    
  29   -78.00      -78.00     -100.00     -100.00     -100.00     -100.00      -81.15      -84.34      -83.93      -81.49    
       -79.02      -81.84      -77.50      -80.74      -78.05      -71.32      -70.59      -72.76      -71.82      -70.25    
       -70.64      -69.10      -63.30      -60.83      -57.48      -57.02      -49.49      -48.07      -51.40      -53.80    
       -46.37      -46.85      -46.20      -44.57      -41.38      -48.98      -29.87      -17.02      -9.225       12.29    
        49.58       112.1       120.9       130.0       105.4       110.2       126.5       138.4       162.9       186.5    
        207.8       255.7    
  30   -78.00      -78.00     -100.00     -100.00     -100.00     -100.00      -83.20      -83.55      -82.73      -81.58    
       -81.90      -80.65      -78.49      -74.73      -72.25      -71.46      -73.10      -70.80      -67.32      -69.61    
       -71.04      -65.45      -65.59      -61.32      -54.70      -54.44      -45.44      -53.00      -52.95      -53.71    
       -45.78      -44.93      -40.69      -45.36      -51.10      -39.00      -33.25      -12.27      0.3171       22.43    
        76.73       92.35       112.2       116.1       104.1       126.4       127.2       135.6       158.8       188.0    
        235.9       286.7    
  31   -78.00      -78.00     -100.00     -100.00     -100.00     -100.00      -81.81      -83.02      -82.37      -78.95    
       -81.22      -81.59      -81.79      -75.68      -68.02      -70.40      -69.62      -70.62      -68.88      -64.11    
       -63.34      -63.00      -58.36      -57.10      -48.62      -48.10      -48.75      -52.42      -50.05      -48.91    
       -47.20      -44.57      -47.66      -63.38      -59.24      -48.11      -33.62      -6.578       10.89       29.89    
        67.78       64.78       88.82       101.1       103.7       113.0       140.0       160.2       164.2       179.1    
        202.9       262.6    
  32   -90.00      -78.00     -100.00     -100.00     -100.00      -76.33      -80.02      -80.09      -81.63      -78.53    
       -78.20      -82.11      -77.41      -73.42      -67.85      -68.91      -60.95      -67.12      -67.25      -65.04    
       -62.53      -60.48      -54.60      -55.02      -48.41      -42.70      -53.12      -47.49      -52.04      -44.95    
       -44.36      -47.75      -39.75      -58.85      -49.43      -40.64      -28.73      -5.537       14.07       14.58    
        28.49       39.78       63.41       99.55       117.1       136.1       158.7       152.8       177.3       196.9    
        207.7       234.4    
  33   -90.00      -90.00     -100.00     -100.00     -100.00      -75.30      -80.74      -79.49      -82.68      -81.24    
       -78.70      -78.26      -76.93      -71.41      -69.05      -61.20      -66.63      -65.61      -62.28      -65.70    
       -64.27      -56.33      -53.09      -48.90      -48.17      -40.37      -40.28      -48.58      -45.17      -43.39    
       -41.56      -40.03      -34.32      -42.02      -36.96      -25.51      -16.76      -17.88       4.733       11.98    
        24.56       33.11       62.41       94.56       116.0       141.2       166.6       165.8       191.8       207.8    
        229.6       254.5    
  34   -90.00      -90.00     -100.00     -100.00     -100.00      -79.46      -82.38      -84.82      -83.27      -82.56    
       -80.87      -81.32      -75.83      -71.82      -61.24      -61.39      -64.53      -63.59      -63.98      -60.07    
       -61.03      -50.44      -50.36      -44.62      -43.87      -43.68      -37.41      -41.55      -39.24      -39.02    
       -37.18      -31.93      -30.91      -36.07      -35.60      -24.78      -19.55      -11.00       2.349       15.80    
        26.89       28.73       63.00       97.20       126.7       149.1       151.2       155.0       173.3       214.5    
        233.6       259.8    
  35   -90.00      -90.00      -90.00      -90.00      -83.00      -78.74      -77.52      -79.53      -68.45      -75.91    
       -77.12      -80.59      -76.35      -71.91      -69.04      -61.58      -60.53      -63.82      -59.68      -56.22    
       -60.61      -52.06      -46.58      -44.44      -41.02      -45.11      -38.72      -31.29      -37.15      -38.71    
       -33.71      -32.71      -24.35      -27.16      -28.95      -29.23      -21.78      -10.94       12.73       17.92    
        34.34       53.51       69.70       101.0       121.0       135.6       146.6       161.2       172.5       204.6    
        237.0       281.1    
  36   -90.00      -90.00      -90.00      -90.00      -90.00      -57.50      -57.31      -61.00      -49.25      -54.73    
       -73.93      -71.53      -67.96      -69.65      -69.46      -67.22      -63.71      -61.36      -60.70      -59.33    
       -60.09      -58.04      -47.53      -45.95      -48.46      -41.45      -40.71      -36.40      -36.68      -35.70    
       -28.51      -30.88      -26.67      -25.86      -32.45      -29.69      -21.04      -7.000       13.43       18.39    
        19.72       46.40       82.43       85.58       111.1       123.7       144.1       161.6       178.0       199.1    
        221.2       249.2    
  37   -90.00      -90.00      -90.00      -90.00      -90.00      -90.00      -39.00      -38.00      -36.91      -48.57    
       -66.98      -72.93      -64.38      -65.10      -70.85      -68.83      -59.58      -55.19      -57.13      -54.95    
       -59.73      -54.95      -51.51      -47.22      -44.87      -40.89      -36.24      -32.57      -36.18      -36.85    
       -33.95      -30.29      -27.78      -27.52      -33.58      -22.66      -17.53      -6.450       4.902       24.35    
        28.43       69.47       87.34       98.78       116.6       133.0       146.9       161.1       169.7       191.1    
        220.1       253.0    
  38   -90.00      -90.00      -90.00      -90.00      -90.00      -90.00      -90.00      -19.00      -37.15      -58.33    
       -67.40      -67.44      -67.93      -66.40      -66.88      -63.22      -61.14      -60.00      -53.54      -48.76    
       -52.43      -50.15      -47.25      -46.93      -48.44      -40.81      -34.65      -35.00      -36.40      -36.55    
       -25.07      -25.98      -19.17      -21.29      -26.27      -16.44      -12.55      -12.46       8.634       19.88    
        30.24       73.27       108.1       129.7       173.3       179.5       162.4       168.2       182.3       195.1    
        209.5       226.6    
  39   -90.00      -90.00      -90.00      -90.00      -90.00      -90.00      -90.00      -90.00      -54.00      -63.04    
       -62.54      -65.24      -64.93      -50.07      -24.89      -53.20      -62.70      -59.24      -54.95      -49.02    
       -49.93      -49.95      -45.91      -44.57      -46.10      -41.60      -34.66      -39.69      -38.47      -34.14    
       -23.20      -19.80      -15.05      -22.95      -18.48      -21.11      -14.56      -20.87       2.182       16.82    
        26.05       47.45       78.34       131.0       171.7       190.6       197.0       194.4       201.5       207.7    
        218.5       222.7    
  40   -90.00      -90.00      -90.00      -90.00      -90.00      -90.00      -90.00      -90.00      -90.00      -65.00    
       -60.89      -59.00      -44.02      -29.48      -11.22      -38.48      -52.49      -36.70      -47.52      -50.04    
       -48.11      -42.49      -37.79      -41.23      -41.35      -38.49      -37.62      -41.64      -39.38      -30.36    
       -28.70      -23.00      -28.80      -23.95      -14.00      -7.935      -4.133      -7.575       5.273       19.90    
        20.85       30.90       71.43       110.1       145.8       172.5       210.2       215.7       225.6       234.5    
        241.0       239.7    
  41   -90.00      -90.00      -90.00      -90.00      -90.00      -90.00      -90.00      -90.00      -90.00      -90.00    
       -60.00      -48.25      -23.59      -17.80      -6.200      -18.61      -33.42      -30.67      -45.62      -49.05    
       -44.25      -45.32      -34.49      -39.22      -37.76      -29.84      -34.04      -33.76      -33.56      -32.10    
       -26.18      -19.93      -26.38      -24.47      -8.633      -20.90      -5.525       5.732       12.64       20.33    
        42.95       70.84       73.12       95.03       125.5       146.4       191.1       242.3       281.8       284.2    
        272.0       262.8    
  42   -90.00      -90.00      -90.00      -90.00      -90.00      -90.00      -90.00      -90.00      -90.00      -90.00    
       -90.00      -46.00      -29.50      -12.78     -2.2222E-02  0.2619      -6.022      -20.56      -40.93      -43.08    
       -38.98      -34.33      -36.51      -32.43      -33.02      -31.16      -29.38      -30.68      -31.02      -29.93    
       -26.44      -21.76      -16.02      -24.41      -13.33      -18.23      -9.268       12.14       15.65       14.58    
        23.43       63.78       99.75       119.7       168.1       185.9       212.8       264.3       318.2       338.2    
        303.5       299.3    
  43   -90.00      -90.00      -90.00      -90.00      -90.00      -90.00      -90.00      -90.00      -90.00      -90.00    
       -90.00      -90.00      -20.00      -2.941       3.311       15.86       32.27      -9.378      -27.27      -39.22    
       -35.95      -31.92      -33.51      -32.93      -32.00      -30.22      -28.10      -26.15      -30.93      -29.02    
       -33.53      -19.75      -16.51      -12.91      -4.375      -4.951      -7.171       3.800       12.60      -4.829    
        21.15       59.96       113.5       145.4       182.9       208.0       239.4       264.3       287.6       320.5    
        303.9       308.5    
  44   -90.00      -90.00      -90.00      -90.00      -90.00      -90.00      -90.00      -90.00      -90.00      -90.00    
       -90.00      -90.00      -90.00       5.000       16.79       23.46       33.62       22.84      -21.17      -38.72    
       -33.00      -28.84      -28.63      -29.50      -30.14      -31.86      -27.00      -26.53      -25.00      -28.63    
       -23.75      -21.05      -19.20      -11.93      -4.619      -6.133      -3.750       11.34       18.00       28.00    
        40.11       81.00       106.4       149.1       187.6       220.2       230.2       241.9       260.6       282.8    
        312.4       343.8    
  45   -90.00      -90.00      -90.00      -90.00      -90.00      -90.00      -90.00      -90.00      -90.00      -90.00    
       -90.00      -90.00      -90.00      -90.00       21.00       14.54       18.33       22.40       8.267      -20.36    
       -28.29      -30.41      -27.02      -28.41      -27.60      -20.64      -22.04      -24.54      -21.89      -20.88    
       -16.90      -19.12      -17.63      -14.07      -3.205      -3.325      -11.11       5.341       20.00       36.80    
        65.28       76.82       116.7       166.3       188.8       199.3       231.7       234.3       254.5       300.5    
        338.6       410.4    
  46   -90.00      -90.00      -90.00      -90.00      -90.00      -90.00      -90.00      -90.00      -90.00      -90.00    
       -90.00      -90.00      -90.00      -90.00      -90.00      10.000       15.12       27.19       32.05       5.907    
       -24.98      -28.05      -26.41      -28.87      -22.36      -20.20      -24.83      -17.79      -16.40      -16.90    
       -18.05      -12.80      -12.93      -8.171      -6.925      -4.689      -5.732      0.9250       19.83       38.56    
        38.26       62.80       131.8       174.5       177.3       192.2       219.5       252.2       279.4       291.5    
        340.6       405.8    
  47   -90.00      -90.00      -90.00      -90.00      -90.00      -90.00      -90.00      -90.00      -90.00      -90.00    
       -90.00      -90.00      -90.00      -90.00      -90.00      -90.00       34.00       25.86       30.59      -10.31    
       -24.73      -28.86      -25.40      -25.85      -25.00      -21.59      -21.25      -17.62      -17.32      -13.13    
       -10.93      -9.156      -13.83      -8.450      -8.805       1.556      -3.476      -3.400       33.59       44.58    
        39.50       61.71       98.32       137.3       166.5       192.2       231.4       291.8       330.0       333.6    
        344.8       361.1    
  48   -90.00      -90.00      -90.00      -90.00      -90.00      -90.00      -90.00      -90.00      -90.00      -90.00    
       -90.00      -90.00      -90.00      -90.00      -90.00      -90.00      -90.00       8.000       1.645      -12.91    
       -31.98      -26.76      -24.37      -23.62      -20.80      -19.75      -18.23      -12.33      -15.16      -17.85    
       -10.91      -8.756      -5.925      -2.927      -6.717     -0.5778       4.047      -3.073       27.62       38.28    
        27.61       76.78       105.2       149.5       172.0       198.4       252.0       322.3       323.8       355.2    
        403.9       392.8    
  49   -90.00      -90.00      -90.00      -90.00      -90.00      -90.00      -90.00      -90.00      -90.00      -90.00    
       -90.00      -90.00      -90.00      -90.00      -90.00      -90.00      -90.00      -90.00      -7.000      -12.00    
       -25.76      -24.85      -27.44      -20.68      -18.10      -16.96      -16.44      -8.610      -9.250      -8.049    
       -11.51      -9.875      -7.548      -4.156      -4.347      -13.12       0.000      0.2195       27.43       45.54    
        37.53       70.89       128.3       165.6       186.5       233.7       276.3       312.1       343.4       378.3    
        418.7       437.1    
  50   -90.00      -90.00      -90.00      -90.00      -90.00      -90.00      -90.00      -90.00      -90.00      -90.00    
       -90.00      -90.00      -90.00      -90.00      -90.00      -90.00      -90.00      -90.00      -90.00      -21.00    
       -11.43      -10.27      -21.29      -21.70      -19.02      -17.76      -11.66      -8.525      -8.098      -12.61    
       -8.905       1.422       5.114       2.933      -5.425      -8.854       4.400       6.822       18.53       32.82    
        52.95       78.47       112.4       168.9       205.2       243.7       291.3       331.8       368.5       394.8    
        437.0       464.7    
  51   -90.00      -90.00      -90.00      -90.00      -90.00      -90.00      -90.00      -90.00      -90.00      -90.00    
       -90.00      -90.00      -90.00      -90.00      -90.00      -90.00      -90.00      -90.00      -90.00      -90.00    
        26.00       11.35       1.067      -15.12      -17.39      -16.16      -13.15      -5.927      -4.732      -8.560    
       -4.500      0.3171       6.463       10.09     -0.8293       1.200       14.89       14.67       20.28       28.90    
        66.57       91.32       132.8       207.8       242.8       248.4       290.3       319.2       336.6       351.0    
        421.2       415.6    
  52   -90.00      -90.00      -90.00      -90.00      -90.00      -90.00      -90.00      -90.00      -90.00      -90.00    
       -90.00      -90.00      -90.00      -90.00      -90.00      -90.00      -90.00      -90.00      -90.00      -90.00    
       -90.00       33.00       20.79       4.390      -12.95      -15.51      -10.98      -3.933      -6.755      -1.575    
       0.4146      -8.000     -0.5111      -6.585       1.714     -0.1333       8.681       13.59       20.08       25.95    
        62.80       86.30       140.7       189.1       207.1       237.1       259.3       280.8       318.6       357.6    
        353.8       314.2    
  53   -90.00      -90.00      -90.00      -90.00      -90.00      -90.00      -90.00      -90.00      -90.00      -90.00    
       -90.00      -90.00      -90.00      -90.00      -90.00      -90.00      -90.00      -90.00      -90.00      -90.00    
       -90.00      -90.00       20.00       6.286       7.761      -13.62      -13.51       2.300       3.822      -2.878    
       -3.175       4.659       7.261       7.933       8.558       4.690       11.36       12.98       22.32       24.95    
        43.20       69.78       111.6       153.4       179.9       212.8       237.7       275.0       288.7       285.3    
        265.1       247.0    
  54   -90.00      -90.00      -90.00      -90.00      -90.00      -90.00      -90.00      -90.00      -90.00      -90.00    
       -90.00      -90.00      -90.00      -90.00      -90.00      -90.00      -90.00      -90.00      -90.00      -90.00    
       -90.00      -90.00      -90.00       8.500       13.06       6.537       6.900       6.111       7.707      -3.225    
        2.405       6.220       13.86       22.85       28.66       24.22       23.25       24.63       22.79       25.94    
        42.74       63.68       95.00       125.2       158.6       181.7       215.0       222.5       214.7       199.9    
        191.4       223.8    
  55   -90.00      -90.00      -90.00      -90.00      -90.00      -90.00      -90.00      -90.00      -90.00      -90.00    
       -90.00      -90.00      -90.00      -90.00      -90.00      -90.00      -90.00      -90.00      -90.00      -90.00    
       -90.00      -90.00      -90.00      -90.00       15.00       17.54       18.71       27.22       31.56       25.02    
        11.49       12.64       16.38       23.02       30.12       25.98       25.44       22.56       23.68       21.23    
        27.61       58.42       84.56       107.1       131.4       154.4       161.9       169.0       151.1       160.5    
        199.6       244.8    
  56   -90.00      -90.00      -90.00      -90.00      -90.00      -90.00      -90.00      -90.00      -90.00      -90.00    
       -90.00      -90.00      -90.00      -90.00      -90.00      -90.00      -90.00      -90.00      -90.00      -90.00    
       -90.00      -90.00      -90.00      -90.00      -90.00       37.00       41.74       51.96       56.68       41.83    
        18.11       18.50       18.34       22.25       27.48       28.84       24.70       24.92       24.09       26.00    
        31.35       39.88       62.80       87.40       100.4       116.4       120.0       122.6       127.6       148.2    
        176.6       192.5    
  57   -90.00      -90.00      -90.00      -90.00      -90.00      -90.00      -90.00      -90.00      -90.00      -90.00    
       -90.00      -90.00      -90.00      -90.00      -90.00      -90.00      -90.00      -90.00      -90.00      -90.00    
       -90.00      -90.00      -90.00      -90.00      -90.00      -90.00       64.00       55.29       49.10       23.12    
        22.41       21.29       22.00       29.68       36.78       33.66       23.02       25.93       26.00       27.88    
        35.16       28.54       37.47       57.92       76.07       94.49       96.62       101.8       100.7       119.4    
        148.0       199.8    
  58   -90.00      -90.00      -90.00      -90.00      -90.00      -90.00      -90.00      -90.00      -90.00      -90.00    
       -90.00      -90.00      -90.00      -90.00      -90.00      -90.00      -90.00      -90.00      -90.00      -90.00    
       -90.00      -90.00      -90.00      -90.00      -90.00      -90.00      -90.00       51.00       32.14       25.31    
        22.88       25.78       31.12       37.84       33.44       32.25       25.15       22.16       28.27       27.07    
        36.79       31.91       38.50       50.76       63.33       70.22       76.60       84.16       111.1       138.3    
        174.4       233.8    
  59   -90.00      -90.00      -90.00      -90.00      -90.00      -90.00      -90.00      -90.00      -90.00      -90.00    
       -90.00      -90.00      -90.00      -90.00      -90.00      -90.00      -90.00      -90.00      -90.00      -90.00    
       -90.00      -90.00      -90.00      -90.00      -90.00      -90.00      -90.00      -90.00       30.00       25.00    
        25.44       27.48       26.95       26.60       26.58       32.59       28.91       32.10       30.95       25.39    
        35.95       34.79       41.56       41.95       53.29       65.51       83.37       101.9       116.3       143.7    
        185.1       261.3    
  60   -90.00      -90.00      -90.00      -90.00      -90.00      -90.00      -90.00      -90.00      -90.00      -90.00    
       -90.00      -90.00      -90.00      -90.00      -90.00      -90.00      -90.00      -90.00      -90.00      -90.00    
       -90.00      -90.00      -90.00      -90.00      -90.00      -90.00      -90.00      -90.00      -90.00       29.00    
        21.04       27.02       27.02       29.40       30.02       32.47       33.79       35.05       28.66       30.30    
        34.60       36.95       43.48       44.76       46.51       60.44       77.75       90.90       113.5       134.5    
        177.7       235.4    
  61   -90.00      -90.00      -90.00      -90.00      -90.00      -90.00      -90.00      -90.00      -90.00      -90.00    
       -90.00      -90.00      -90.00      -90.00      -90.00      -90.00      -90.00      -90.00      -90.00      -90.00    
       -90.00      -90.00      -90.00      -90.00      -90.00      -90.00      -90.00      -90.00      -90.00      -90.00    
        20.00       25.40       26.07       26.33       29.17       33.88       31.98       31.61       36.55       31.84    
        34.22       39.42       44.27       45.77       46.95       52.08       72.32       94.00       110.2       135.7    
        160.7       190.3    
  62   -90.00      -90.00      -90.00      -90.00      -90.00      -90.00      -90.00      -90.00      -90.00      -90.00    
       -90.00      -90.00      -90.00      -90.00      -90.00      -90.00      -90.00      -90.00      -90.00      -90.00    
       -90.00      -90.00      -90.00      -90.00      -90.00      -90.00      -90.00      -90.00      -90.00      -90.00    
       -90.00       27.50       29.27       30.88       31.88       32.71       33.46       36.17       37.95       44.80    
        44.00       39.75       44.00       43.73       46.67       52.88       67.11       96.88       142.6       184.6    
        195.3      -90.00    
  63   -90.00      -90.00      -90.00      -90.00      -90.00      -90.00      -90.00      -90.00      -90.00      -90.00    
       -90.00      -90.00      -90.00      -90.00      -90.00      -90.00      -90.00      -90.00      -90.00      -90.00    
       -90.00      -90.00      -90.00      -90.00      -90.00      -90.00      -90.00      -90.00      -90.00      -90.00    
       -90.00      -90.00       35.00       35.86       32.72       34.93       35.50       36.76       41.00       49.57    
        46.50       47.27       44.00       49.45       48.22       51.24       64.16       114.4       167.2       184.8    
       -90.00      -90.00    
  64   -90.00      -90.00      -90.00      -90.00      -90.00      -90.00      -90.00      -90.00      -90.00      -90.00    
       -90.00      -90.00      -90.00      -90.00      -90.00      -90.00      -90.00      -90.00      -90.00      -90.00    
       -90.00      -90.00      -90.00      -90.00      -90.00      -90.00      -90.00      -90.00      -90.00      -90.00    
       -90.00      -90.00      -90.00       34.00       40.62       35.58       39.44       37.24       41.71       45.47    
        43.17       47.72       47.40       47.95       55.12       56.78       72.51       115.4       179.0      -90.00    
       -90.00      -90.00    
  65   -90.00      -90.00      -90.00      -90.00      -90.00      -90.00      -90.00      -90.00      -90.00      -90.00    
       -90.00      -90.00      -90.00      -90.00      -90.00      -90.00      -90.00      -90.00      -90.00      -90.00    
       -90.00      -90.00      -90.00      -90.00      -90.00      -90.00      -90.00      -90.00      -90.00      -90.00    
       -90.00      -90.00      -90.00      -90.00       34.00       35.07       44.78       45.55       47.63       47.29    
        49.84       53.20       50.44       52.46       53.50       55.84       72.97       110.2      -90.00      -90.00    
       -90.00      -90.00    
  66   -90.00      -90.00      -90.00      -90.00      -90.00      -90.00      -90.00      -90.00      -90.00      -90.00    
       -90.00      -90.00      -90.00      -90.00      -90.00      -90.00      -90.00      -90.00      -90.00      -90.00    
       -90.00      -90.00      -90.00      -90.00      -90.00      -90.00      -90.00      -90.00      -90.00      -90.00    
       -90.00      -90.00      -90.00      -90.00      -90.00       38.00       45.32       49.47       48.98       46.31    
        52.03       55.22       54.00       56.70       54.85       56.93       59.83      -90.00      -90.00      -90.00    
       -90.00      -90.00    
  67   -90.00      -90.00      -90.00      -90.00      -90.00      -90.00      -90.00      -90.00      -90.00      -90.00    
       -90.00      -90.00      -90.00      -90.00      -90.00      -90.00      -90.00      -90.00      -90.00      -90.00    
       -90.00      -90.00      -90.00      -90.00      -90.00      -90.00      -90.00      -90.00      -90.00      -90.00    
       -90.00      -90.00      -90.00      -90.00      -90.00      -90.00       43.00       46.79       48.12       53.45    
        57.51       57.93       54.28       56.90       57.75       57.83      -90.00      -90.00      -90.00      -90.00    
       -90.00      -90.00    
  68   -90.00      -90.00      -90.00      -90.00      -90.00      -90.00      -90.00      -90.00      -90.00      -90.00    
       -90.00      -90.00      -90.00      -90.00      -90.00      -90.00      -90.00      -90.00      -90.00      -90.00    
       -90.00      -90.00      -90.00      -90.00      -90.00      -90.00      -90.00      -90.00      -90.00      -90.00    
       -90.00      -90.00      -90.00      -90.00      -90.00      -90.00      -90.00       53.00       57.04       54.54    
        60.04       58.12       60.93       62.47       60.17      -90.00      -90.00      -90.00      -90.00      -90.00    
       -90.00      -90.00    


 STRESS PERIOD     LENGTH       TIME STEPS     MULTIPLIER FOR DELT    SS FLAG
 ----------------------------------------------------------------------------
        1        3.1536000E+09     50                    1.000         SS
        2        1.8921600E+09    120                    1.000         TR

 COMBINED STEADY-STATE AND TRANSIENT SIMULATION



 
 # Basic Package file created on 05/07/2016 by ModelMuse version 3.7.1.0.        
 THE FREE FORMAT OPTION HAS BEEN SELECTED
 THE PRINTTIME OPTION HAS BEEN SELECTED
 When solver convergence criteria are not met,
 execution will continue unless the budget percent
 discrepancy is greater than:    1.0000
 CALCULATE FLOW BETWEEN ADJACENT CONSTANT-HEAD CELLS



                     BOUNDARY ARRAY FOR LAYER   1
 READING ON UNIT   13 WITH FORMAT: (FREE)              

          1     2     3     4     5     6     7     8     9    10    11    12    13    14    15    16    17    18    19    20
         21    22    23    24    25    26    27    28    29    30    31    32    33    34    35    36    37    38    39    40
         41    42    43    44    45    46    47    48    49    50    51    52
 ............................................................................................................................
   1      0     0     0     0     0     0     0     0     0     0     0     0     0     0     0     0     0     0     0     0
          1     1     1     1     1     1     1     1     1     0     0     0     0     0     0     0     0     0     0     0
          0     0     0     0     0     0     0     0     0     0     0     0
   2      0     0     0     0     0     0     0     0     0     0     0     0     0     0     0     0     0     0     0     1
          1     1     1     1     1     1     1     1     1     1     1     0     0     0     0     0     0     0     0     0
          0     0     0     0     0     0     0     0     0     0     0     0
   3      0     0     0     0     0     0     0     0     0     0     0     0     0     0     0     0     0     1     1     1
          1     1     1     1     1     1     1     1     1     1     1     1     1     0     0     0     0     0     0     0
          0     0     0     0     0     0     0     0     0     0     0     0
   4      0     0     0     0     0     0     0     0     0     0     1     1     1     1     1     1     1     1     1     1
          1     1     1     1     1     1     1     1     1     1     1     1     1     1     1     0     0     0     0     0
          0     0     0     0     0     0     0     0     0     0     0     0
   5      0     0     0     0     0     0     0     1     1     1     1     1     1     1     1     1     1     1     1     1
          1     1     1     1     1     1     1     1     1     1     1     1     1     1     1     1     0     0     0     0
          0     0     0     0     0     0     0     0     0     0     0     0
   6      1     1     1     1     1     1     1     1     1     1     1     1     1     1     1     1     1     1     1     1
          1     1     1     1     1     1     1     1     1     1     1     1     1     1     1     1     0     0     0     0
          0     0     0     0     0     0     0     0     0     0     0     0
   7      1     1     1     1     1     1     1     1     1     1     1     1     1     1     1     1     1     1     1     1
          1     1     1     1     1     1     1     1     1     1     1     1     1     1     1     1     0     0     0     0
          0     0     0     0     0     0     0     0     0     0     0     0
   8      1     1     1     1     1     1     1     1     1     1     1     1     1     1     1     1     1     1     1     1
          1     1     1     1     1     1     1     1     1     1     1     1     1     1     1     1     0     0     0     0
          0     0     0     0     0     0     0     0     0     0     0     0
   9      1     1     1     1     1     1     1     1     1     1     1     1     1     1     1     1     1     1     1     1
          1     1     1     1     1     1     1     1     1     1     1     1     1     1     1     0     0     0     0     0
          0     0     0     0     0     0     0     0     0     0     0     0
  10      0     1     1     1     1     1     1     1     1     1     1     1     1     1     1     1     1     1     1     1
          1     1     1     1     1     1     1     1     1     1     1     1     1     1     1     0     0     0     0     0
          0     0     0     0     0     0     0     0     0     0     0     0
  11      0     1     1     1     1     1     1     1     1     1     1     1     1     1     1     1     1     1     1     1
          1     1     1     1     1     1     1     1     1     1     1     1     1     1     1     0     0     0     0     0
          0     0     0     0     0     0     0     0     0     0     0     0
  12      0     1     1     1     1     1     1     1     1     1     1     1     1     1     1     1     1     1     1     1
          1     1     1     1     1     1     1     1     1     1     1     1     1     1     1     0     0     0     0     0
          0     0     0     0     0     0     0     0     0     0     0     0
  13      0     1     1     1     1     1     1     1     1     1     1     1     1     1     1     1     1     1     1     1
          1     1     1     1     1     1     1     1     1     1     1     1     1     1     1     0     0     0     0     0
          0     0     0     0     0     0     0     0     0     0     0     0
  14      0     1     1     1     1     1     1     1     1     1     1     1     1     1     1     1     1     1     1     1
          1     1     1     1     1     1     1     1     1     1     1     1     1     1     1     0     0     0     0     0
          0     0     0     0     0     0     0     0     0     0     0     0
  15      0     1     1     1     1     1     1     1     1     1     1     1     1     1     1     1     1     1     1     1
          1     1     1     1     1     1     1     1     1     1     1     1     1     1     1     1     0     0     0     0
          0     0     0     0     0     0     0     0     0     0     0     0
  16      0     1     1     1     1     1     1     1     1     1     1     1     1     1     1     1     1     1     1     1
          1     1     1     1     1     1     1     1     1     1     1     1     1     1     1     1     1     0     0     0
          0     0     0     0     0     0     0     0     0     0     0     0
  17      0     1     1     1     1     1     1     1     1     1     1     1     1     1     1     1     1     1     1     1
          1     1     1     1     1     1     1     1     1     1     1     1     1     1     1     1     1     1     1     1
          0     0     0     0     0     0     0     0     0     0     0     0
  18      0     1     1     1     1     1     1     1     1     1     1     1     1     1     1     1     1     1     1     1
          1     1     1     1     1     1     1     1     1     1     1     1     1     1     1     1     1     1     1     1
          1     1     1     1     0     0     0     0     0     0     0     0
  19      0     1     1     1     1     1     1     1     1     1     1     1     1     1     1     1     1     1     1     1
          1     1     1     1     1     1     1     1     1     1     1     1     1     1     1     1     1     1     1     1
          1     1     1     1     1     1     1     1     1     1     1     1
  20      0     1     1     1     1     1     1     1     1     1     1     1     1     1     1     1     1     1     1     1
          1     1     1     1     1     1     1     1     1     1     1     1     1     1     1     1     1     1     1     1
          1     1     1     1     1     1     1     1     1     1     1     1
  21      0     1     1     1     1     1     1     1     1     1     1     1     1     1     1     1     1     1     1     1
          1     1     1     1     1     1     1     1     1     1     1     1     1     1     1     1     1     1     1     1
          1     1     1     1     1     1     1     1     1     1     1     0
  22      0     1     1     1     1     1     1     1     1     1     1     1     1     1     1     1     1     1     1     1
          1     1     1     1     1     1     1     1     1     1     1     1     1     1     1     1     1     1     1     1
          1     1     1     1     1     1     1     1     1     0     0     0
  23      0     1     1     1     1     1     1     1     1     1     1     1     1     1     1     1     1     1     1     1
          1     1     1     1     1     1     1     1     1     1     1     1     1     1     1     1     1     0     0     0
          1     1     1     1     1     1     1     1     0     0     0     0
  24      0     0     1     1     1     1     1     1     1     1     1     1     1     1     1     1     1     1     1     1
          1     1     1     1     1     1     1     1     1     1     1     1     1     1     1     1     1     0     0     0
          0     0     0     0     0     0     1     0     0     0     0     0
  25      0     0     1     1     1     1     1     1     1     1     1     1     1     1     1     1     1     1     1     1
          1     1     1     1     1     1     1     1     1     1     1     1     1     1     1     1     1     0     0     0
          0     0     0     0     0     0     0     0     0     0     0     0
  26      0     0     1     1     1     1     1     1     1     1     1     1     1     1     1     1     1     1     1     1
          1     1     1     1     1     1     1     1     1     1     1     1     1     1     1     1     1     0     0     0
          0     0     0     0     0     0     0     0     0     0     0     0
  27      0     0     1     1     1     1     1     1     1     1     1     1     1     1     1     1     1     1     1     1
          1     1     1     1     1     1     1     1     1     1     1     1     1     1     1     1     1     0     0     0
          0     0     0     0     0     0     0     0     0     0     0     0
  28      0     0     1     1     1     1     1     1     1     1     1     1     1     1     1     1     1     1     1     1
          1     1     1     1     1     1     1     1     1     1     1     1     1     1     1     1     1     0     0     0
          0     0     0     0     0     0     0     0     0     0     0     0
  29      0     0     1     1     1     1     1     1     1     1     1     1     1     1     1     1     1     1     1     1
          1     1     1     1     1     1     1     1     1     1     1     1     1     1     1     1     1     0     0     0
          0     0     0     0     0     0     0     0     0     0     0     0
  30      0     0     1     1     1     1     1     1     1     1     1     1     1     1     1     1     1     1     1     1
          1     1     1     1     1     1     1     1     1     1     1     1     1     1     1     1     0     0     0     0
          0     0     0     0     0     0     0     0     0     0     0     0
  31      0     0     1     1     1     1     1     1     1     1     1     1     1     1     1     1     1     1     1     1
          1     1     1     1     1     1     1     1     1     1     1     1     1     1     1     1     0     0     0     0
          0     0     0     0     0     0     0     0     0     0     0     0
  32      0     0     1     1     1     1     1     1     1     1     1     1     1     1     1     1     1     1     1     1
          1     1     1     1     1     1     1     1     1     1     1     1     1     1     1     1     0     0     0     0
          0     0     0     0     0     0     0     0     0     0     0     0
  33      0     0     1     1     1     1     1     1     1     1     1     1     1     1     1     1     1     1     1     1
          1     1     1     1     1     1     1     1     1     1     1     1     1     1     1     1     0     0     0     0
          0     0     0     0     0     0     0     0     0     0     0     0
  34      0     0     1     1     1     1     1     1     1     1     1     1     1     1     1     1     1     1     1     1
          1     1     1     1     1     1     1     1     1     1     1     1     1     1     1     1     0     0     0     0
          0     0     0     0     0     0     0     0     0     0     0     0
  35      0     0     0     0     0     0     1     1     0     1     1     1     1     1     1     1     1     1     1     1
          1     1     1     1     1     1     1     1     1     1     1     1     1     1     1     1     0     0     0     0
          0     0     0     0     0     0     0     0     0     0     0     0
  36      0     0     0     0     0     0     0     0     0     0     1     1     1     1     1     1     1     1     1     1
          1     1     1     1     1     1     1     1     1     1     1     1     1     1     1     1     0     0     0     0
          0     0     0     0     0     0     0     0     0     0     0     0
  37      0     0     0     0     0     0     0     0     0     0     1     1     1     1     1     1     1     1     1     1
          1     1     1     1     1     1     1     1     1     1     1     1     1     1     1     1     0     0     0     0
          0     0     0     0     0     0     0     0     0     0     0     0
  38      0     0     0     0     0     0     0     0     0     0     0     0     0     1     1     1     1     1     1     1
          1     1     1     1     1     1     1     1     1     1     1     1     1     1     1     1     1     0     0     0
          0     0     0     0     0     0     0     0     0     0     0     0
  39      0     0     0     0     0     0     0     0     0     0     0     0     0     0     0     0     1     1     1     1
          1     1     1     1     1     1     1     1     1     1     1     1     1     1     1     1     1     0     0     0
          0     0     0     0     0     0     0     0     0     0     0     0
  40      0     0     0     0     0     0     0     0     0     0     0     0     0     0     0     0     0     1     1     1
          1     1     1     1     1     1     1     1     1     1     1     1     1     1     1     1     1     0     0     0
          0     0     0     0     0     0     0     0     0     0     0     0
  41      0     0     0     0     0     0     0     0     0     0     0     0     0     0     0     0     0     0     1     1
          1     1     1     1     1     1     1     1     1     1     1     1     1     1     1     1     1     0     0     0
          0     0     0     0     0     0     0     0     0     0     0     0
  42      0     0     0     0     0     0     0     0     0     0     0     0     0     0     0     0     0     0     1     1
          1     1     1     1     1     1     1     1     1     1     1     1     1     1     1     1     1     0     0     0
          0     0     0     0     0     0     0     0     0     0     0     0
  43      0     0     0     0     0     0     0     0     0     0     0     0     0     0     0     0     0     0     0     1
          1     1     1     1     1     1     1     1     1     1     1     1     1     1     1     1     1     1     0     0
          0     0     0     0     0     0     0     0     0     0     0     0
  44      0     0     0     0     0     0     0     0     0     0     0     0     0     0     0     0     0     0     0     1
          1     1     1     1     1     1     1     1     1     1     1     1     1     1     1     1     1     1     0     0
          0     0     0     0     0     0     0     0     0     0     0     0
  45      0     0     0     0     0     0     0     0     0     0     0     0     0     0     0     0     0     0     0     0
          1     1     1     1     1     1     1     1     1     1     1     1     1     1     1     1     1     1     0     0
          0     0     0     0     0     0     0     0     0     0     0     0
  46      0     0     0     0     0     0     0     0     0     0     0     0     0     0     0     0     0     0     0     0
          1     1     1     1     1     1     1     1     1     1     1     1     1     1     1     1     1     1     0     0
          0     0     0     0     0     0     0     0     0     0     0     0
  47      0     0     0     0     0     0     0     0     0     0     0     0     0     0     0     0     0     0     0     0
          0     1     1     1     1     1     1     1     1     1     1     1     1     1     1     1     1     1     0     0
          0     0     0     0     0     0     0     0     0     0     0     0
  48      0     0     0     0     0     0     0     0     0     0     0     0     0     0     0     0     0     0     0     0
          0     1     1     1     1     1     1     1     1     1     1     1     1     1     1     1     1     1     0     0
          0     0     0     0     0     0     0     0     0     0     0     0
  49      0     0     0     0     0     0     0     0     0     0     0     0     0     0     0     0     0     0     0     0
          0     0     1     1     1     1     1     1     1     1     1     1     1     1     1     1     1     1     1     0
          0     0     0     0     0     0     0     0     0     0     0     0
  50      0     0     0     0     0     0     0     0     0     0     0     0     0     0     0     0     0     0     0     0
          0     0     0     1     1     1     1     1     1     1     1     1     1     1     1     1     1     1     1     0
          0     0     0     0     0     0     0     0     0     0     0     0
  51      0     0     0     0     0     0     0     0     0     0     0     0     0     0     0     0     0     0     0     0
          0     0     0     0     1     1     1     1     1     1     1     1     1     1     1     1     1     1     1     0
          0     0     0     0     0     0     0     0     0     0     0     0
  52      0     0     0     0     0     0     0     0     0     0     0     0     0     0     0     0     0     0     0     0
          0     0     0     0     0     1     1     0     1     1     1     1     1     1     1     1     1     1     1     0
          0     0     0     0     0     0     0     0     0     0     0     0
  53      0     0     0     0     0     0     0     0     0     0     0     0     0     0     0     0     0     0     0     0
          0     0     0     0     0     0     0     0     0     1     1     1     1     1     1     1     1     1     1     1
          0     0     0     0     0     0     0     0     0     0     0     0
  54      0     0     0     0     0     0     0     0     0     0     0     0     0     0     0     0     0     0     0     0
          0     0     0     0     0     0     0     0     0     1     1     1     1     1     1     1     1     1     1     1
          0     0     0     0     0     0     0     0     0     0     0     0
  55      0     0     0     0     0     0     0     0     0     0     0     0     0     0     0     0     0     0     0     0
          0     0     0     0     0     0     0     0     0     1     1     1     1     1     1     1     1     1     1     1
          1     0     0     0     0     0     0     0     0     0     0     0
  56      0     0     0     0     0     0     0     0     0     0     0     0     0     0     0     0     0     0     0     0
          0     0     0     0     0     0     0     0     0     1     1     1     1     1     1     1     1     1     1     1
          1     1     0     0     0     0     0     0     0     0     0     0
  57      0     0     0     0     0     0     0     0     0     0     0     0     0     0     0     0     0     0     0     0
          0     0     0     0     0     0     0     0     0     0     1     1     1     1     1     1     1     1     1     1
          1     1     1     0     0     0     0     0     0     0     0     0
  58      0     0     0     0     0     0     0     0     0     0     0     0     0     0     0     0     0     0     0     0
          0     0     0     0     0     0     0     0     0     0     1     1     1     1     1     1     1     1     1     1
          1     1     1     1     0     0     0     0     0     0     0     0
  59      0     0     0     0     0     0     0     0     0     0     0     0     0     0     0     0     0     0     0     0
          0     0     0     0     0     0     0     0     0     0     0     1     1     1     1     1     1     1     1     1
          1     1     1     1     1     0     0     0     0     0     0     0
  60      0     0     0     0     0     0     0     0     0     0     0     0     0     0     0     0     0     0     0     0
          0     0     0     0     0     0     0     0     0     0     0     1     1     1     1     1     1     1     1     1
          1     1     1     1     1     0     0     0     0     0     0     0
  61      0     0     0     0     0     0     0     0     0     0     0     0     0     0     0     0     0     0     0     0
          0     0     0     0     0     0     0     0     0     0     0     0     1     1     1     1     1     1     1     1
          1     1     1     1     1     1     0     0     0     0     0     0
  62      0     0     0     0     0     0     0     0     0     0     0     0     0     0     0     0     0     0     0     0
          0     0     0     0     0     0     0     0     0     0     0     0     1     1     1     1     1     1     1     1
          1     1     1     1     1     1     0     0     0     0     0     0
  63      0     0     0     0     0     0     0     0     0     0     0     0     0     0     0     0     0     0     0     0
          0     0     0     0     0     0     0     0     0     0     0     0     0     1     1     1     1     1     1     1
          1     1     1     1     1     1     0     0     0     0     0     0
  64      0     0     0     0     0     0     0     0     0     0     0     0     0     0     0     0     0     0     0     0
          0     0     0     0     0     0     0     0     0     0     0     0     0     0     1     1     1     1     1     1
          1     1     1     1     1     1     1     0     0     0     0     0
  65      0     0     0     0     0     0     0     0     0     0     0     0     0     0     0     0     0     0     0     0
          0     0     0     0     0     0     0     0     0     0     0     0     0     0     0     1     1     1     1     1
          1     1     1     1     1     1     0     0     0     0     0     0
  66      0     0     0     0     0     0     0     0     0     0     0     0     0     0     0     0     0     0     0     0
          0     0     0     0     0     0     0     0     0     0     0     0     0     0     0     0     0     1     1     1
          1     1     1     1     1     1     0     0     0     0     0     0
  67      0     0     0     0     0     0     0     0     0     0     0     0     0     0     0     0     0     0     0     0
          0     0     0     0     0     0     0     0     0     0     0     0     0     0     0     0     0     0     0     1
          1     1     1     1     1     0     0     0     0     0     0     0
  68      0     0     0     0     0     0     0     0     0     0     0     0     0     0     0     0     0     0     0     0
          0     0     0     0     0     0     0     0     0     0     0     0     0     0     0     0     0     0     0     0
          0     1     1     0     0     0     0     0     0     0     0     0



                     BOUNDARY ARRAY FOR LAYER   2
 READING ON UNIT   13 WITH FORMAT: (FREE)              

          1     2     3     4     5     6     7     8     9    10    11    12    13    14    15    16    17    18    19    20
         21    22    23    24    25    26    27    28    29    30    31    32    33    34    35    36    37    38    39    40
         41    42    43    44    45    46    47    48    49    50    51    52
 ............................................................................................................................
   1      0     0     0     0     0     0     0     0     0     0     0     0     0     0     0     0     0     0     0     0
          1     1     1     1     1     1     1     1     1     0     0     0     0     0     0     0     0     0     0     0
          0     0     0     0     0     0     0     0     0     0     0     0
   2      0     0     0     0     0     0     0     0     0     0     0     0     0     0     0     0     0     0     0     1
          1     1     1     1     1     1     1     1     1     1     1     0     0     0     0     0     0     0     0     0
          0     0     0     0     0     0     0     0     0     0     0     0
   3      0     0     0     0     0     0     0     0     0     0     0     0     0     0     0     0     0     1     1     1
          1     1     1     1     1     1     1     1     1     1     1     1     1     0     0     0     0     0     0     0
          0     0     0     0     0     0     0     0     0     0     0     0
   4      0     0     0     0     0     0     0     0     0     0     1     1     1     1     1     1     1     1     1     1
          1     1     1     1     1     1     1     1     1     1     1     1     1     1     1     0     0     0     0     0
          0     0     0     0     0     0     0     0     0     0     0     0
   5      0     0     0     0     0     0     0     1     1     1     1     1     1     1     1     1     1     1     1     1
          1     1     1     1     1     1     1     1     1     1     1     1     1     1     1     1     0     0     0     0
          0     0     0     0     0     0     0     0     0     0     0     0
   6      1     1     1     1     1     1     1     1     1     1     1     1     1     1     1     1     1     1     1     1
          1     1     1     1     1     1     1     1     1     1     1     1     1     1     1     1     0     0     0     0
          0     0     0     0     0     0     0     0     0     0     0     0
   7      1     1     1     1     1     1     1     1     1     1     1     1     1     1     1     1     1     1     1     1
          1     1     1     1     1     1     1     1     1     1     1     1     1     1     1     1     0     0     0     0
          0     0     0     0     0     0     0     0     0     0     0     0
   8      1     1     1     1     1     1     1     1     1     1     1     1     1     1     1     1     1     1     1     1
          1     1     1     1     1     1     1     1     1     1     1     1     1     1     1     1     0     0     0     0
          0     0     0     0     0     0     0     0     0     0     0     0
   9      1     1     1     1     1     1     1     1     1     1     1     1     1     1     1     1     1     1     1     1
          1     1     1     1     1     1     1     1     1     1     1     1     1     1     1     0     0     0     0     0
          0     0     0     0     0     0     0     0     0     0     0     0
  10      0     1     1     1     1     1     1     1     1     1     1     1     1     1     1     1     1     1     1     1
          1     1     1     1     1     1     1     1     1     1     1     1     1     1     1     0     0     0     0     0
          0     0     0     0     0     0     0     0     0     0     0     0
  11      0     1     1     1     1     1     1     1     1     1     1     1     1     1     1     1     1     1     1     1
          1     1     1     1     1     1     1     1     1     1     1     1     1     1     1     0     0     0     0     0
          0     0     0     0     0     0     0     0     0     0     0     0
  12      0     1     1     1     1     1     1     1     1     1     1     1     1     1     1     1     1     1     1     1
          1     1     1     1     1     1     1     1     1     1     1     1     1     1     1     0     0     0     0     0
          0     0     0     0     0     0     0     0     0     0     0     0
  13      0     1     1     1     1     1     1     1     1     1     1     1     1     1     1     1     1     1     1     1
          1     1     1     1     1     1     1     1     1     1     1     1     1     1     1     0     0     0     0     0
          0     0     0     0     0     0     0     0     0     0     0     0
  14      0     1     1     1     1     1     1     1     1     1     1     1     1     1     1     1     1     1     1     1
          1     1     1     1     1     1     1     1     1     1     1     1     1     1     1     0     0     0     0     0
          0     0     0     0     0     0     0     0     0     0     0     0
  15      0     1     1     1     1     1     1     1     1     1     1     1     1     1     1     1     1     1     1     1
          1     1     1     1     1     1     1     1     1     1     1     1     1     1     1     1     0     0     0     0
          0     0     0     0     0     0     0     0     0     0     0     0
  16      0     1     1     1     1     1     1     1     1     1     1     1     1     1     1     1     1     1     1     1
          1     1     1     1     1     1     1     1     1     1     1     1     1     1     1     1     1     0     0     0
          0     0     0     0     0     0     0     0     0     0     0     0
  17      0     1     1     1     1     1     1     1     1     1     1     1     1     1     1     1     1     1     1     1
          1     1     1     1     1     1     1     1     1     1     1     1     1     1     1     1     1     1     1     1
          0     0     0     0     0     0     0     0     0     0     0     0
  18      0     1     1     1     1     1     1     1     1     1     1     1     1     1     1     1     1     1     1     1
          1     1     1     1     1     1     1     1     1     1     1     1     1     1     1     1     1     1     1     1
          1     1     1     1     0     0     0     0     0     0     0     0
  19      0     1     1     1     1     1     1     1     1     1     1     1     1     1     1     1     1     1     1     1
          1     1     1     1     1     1     1     1     1     1     1     1     1     1     1     1     1     1     1     1
          1     1     1     1     1     1     1     1     1     1     1     1
  20      0     1     1     1     1     1     1     1     1     1     1     1     1     1     1     1     1     1     1     1
          1     1     1     1     1     1     1     1     1     1     1     1     1     1     1     1     1     1     1     1
          1     1     1     1     1     1     1     1     1     1     1     1
  21      0     1     1     1     1     1     1     1     1     1     1     1     1     1     1     1     1     1     1     1
          1     1     1     1     1     1     1     1     1     1     1     1     1     1     1     1     1     1     1     1
          1     1     1     1     1     1     1     1     1     1     1     0
  22      0     1     1     1     1     1     1     1     1     1     1     1     1     1     1     1     1     1     1     1
          1     1     1     1     1     1     1     1     1     1     1     1     1     1     1     1     1     1     1     1
          1     1     1     1     1     1     1     1     1     0     0     0
  23      0     1     1     1     1     1     1     1     1     1     1     1     1     1     1     1     1     1     1     1
          1     1     1     1     1     1     1     1     1     1     1     1     1     1     1     1     1     0     0     0
          1     1     1     1     1     1     1     1     0     0     0     0
  24      0     0     1     1     1     1     1     1     1     1     1     1     1     1     1     1     1     1     1     1
          1     1     1     1     1     1     1     1     1     1     1     1     1     1     1     1     1     0     0     0
          0     0     0     0     0     0     1     0     0     0     0     0
  25      0     0     1     1     1     1     1     1     1     1     1     1     1     1     1     1     1     1     1     1
          1     1     1     1     1     1     1     1     1     1     1     1     1     1     1     1     1     0     0     0
          0     0     0     0     0     0     0     0     0     0     0     0
  26      0     0     1     1     1     1     1     1     1     1     1     1     1     1     1     1     1     1     1     1
          1     1     1     1     1     1     1     1     1     1     1     1     1     1     1     1     1     0     0     0
          0     0     0     0     0     0     0     0     0     0     0     0
  27      0     0     1     1     1     1     1     1     1     1     1     1     1     1     1     1     1     1     1     1
          1     1     1     1     1     1     1     1     1     1     1     1     1     1     1     1     1     0     0     0
          0     0     0     0     0     0     0     0     0     0     0     0
  28      0     0     1     1     1     1     1     1     1     1     1     1     1     1     1     1     1     1     1     1
          1     1     1     1     1     1     1     1     1     1     1     1     1     1     1     1     1     0     0     0
          0     0     0     0     0     0     0     0     0     0     0     0
  29      0     0     1     1     1     1     1     1     1     1     1     1     1     1     1     1     1     1     1     1
          1     1     1     1     1     1     1     1     1     1     1     1     1     1     1     1     1     0     0     0
          0     0     0     0     0     0     0     0     0     0     0     0
  30      0     0     1     1     1     1     1     1     1     1     1     1     1     1     1     1     1     1     1     1
          1     1     1     1     1     1     1     1     1     1     1     1     1     1     1     1     0     0     0     0
          0     0     0     0     0     0     0     0     0     0     0     0
  31      0     0     1     1     1     1     1     1     1     1     1     1     1     1     1     1     1     1     1     1
          1     1     1     1     1     1     1     1     1     1     1     1     1     1     1     1     0     0     0     0
          0     0     0     0     0     0     0     0     0     0     0     0
  32      0     0     1     1     1     1     1     1     1     1     1     1     1     1     1     1     1     1     1     1
          1     1     1     1     1     1     1     1     1     1     1     1     1     1     1     1     0     0     0     0
          0     0     0     0     0     0     0     0     0     0     0     0
  33      0     0     1     1     1     1     1     1     1     1     1     1     1     1     1     1     1     1     1     1
          1     1     1     1     1     1     1     1     1     1     1     1     1     1     1     1     0     0     0     0
          0     0     0     0     0     0     0     0     0     0     0     0
  34      0     0     1     1     1     1     1     1     1     1     1     1     1     1     1     1     1     1     1     1
          1     1     1     1     1     1     1     1     1     1     1     1     1     1     1     1     0     0     0     0
          0     0     0     0     0     0     0     0     0     0     0     0
  35      0     0     0     0     0     0     1     1     0     1     1     1     1     1     1     1     1     1     1     1
          1     1     1     1     1     1     1     1     1     1     1     1     1     1     1     1     0     0     0     0
          0     0     0     0     0     0     0     0     0     0     0     0
  36      0     0     0     0     0     0     0     0     0     0     1     1     1     1     1     1     1     1     1     1
          1     1     1     1     1     1     1     1     1     1     1     1     1     1     1     1     0     0     0     0
          0     0     0     0     0     0     0     0     0     0     0     0
  37      0     0     0     0     0     0     0     0     0     0     1     1     1     1     1     1     1     1     1     1
          1     1     1     1     1     1     1     1     1     1     1     1     1     1     1     1     0     0     0     0
          0     0     0     0     0     0     0     0     0     0     0     0
  38      0     0     0     0     0     0     0     0     0     0     0     0     0     1     1     1     1     1     1     1
          1     1     1     1     1     1     1     1     1     1     1     1     1     1     1     1     1     0     0     0
          0     0     0     0     0     0     0     0     0     0     0     0
  39      0     0     0     0     0     0     0     0     0     0     0     0     0     0     0     0     1     1     1     1
          1     1     1     1     1     1     1     1     1     1     1     1     1     1     1     1     1     0     0     0
          0     0     0     0     0     0     0     0     0     0     0     0
  40      0     0     0     0     0     0     0     0     0     0     0     0     0     0     0     0     0     1     1     1
          1     1     1     1     1     1     1     1     1     1     1     1     1     1     1     1     1     0     0     0
          0     0     0     0     0     0     0     0     0     0     0     0
  41      0     0     0     0     0     0     0     0     0     0     0     0     0     0     0     0     0     0     1     1
          1     1     1     1     1     1     1     1     1     1     1     1     1     1     1     1     1     0     0     0
          0     0     0     0     0     0     0     0     0     0     0     0
  42      0     0     0     0     0     0     0     0     0     0     0     0     0     0     0     0     0     0     1     1
          1     1     1     1     1     1     1     1     1     1     1     1     1     1     1     1     1     0     0     0
          0     0     0     0     0     0     0     0     0     0     0     0
  43      0     0     0     0     0     0     0     0     0     0     0     0     0     0     0     0     0     0     0     1
          1     1     1     1     1     1     1     1     1     1     1     1     1     1     1     1     1     1     0     0
          0     0     0     0     0     0     0     0     0     0     0     0
  44      0     0     0     0     0     0     0     0     0     0     0     0     0     0     0     0     0     0     0     1
          1     1     1     1     1     1     1     1     1     1     1     1     1     1     1     1     1     1     0     0
          0     0     0     0     0     0     0     0     0     0     0     0
  45      0     0     0     0     0     0     0     0     0     0     0     0     0     0     0     0     0     0     0     0
          1     1     1     1     1     1     1     1     1     1     1     1     1     1     1     1     1     1     0     0
          0     0     0     0     0     0     0     0     0     0     0     0
  46      0     0     0     0     0     0     0     0     0     0     0     0     0     0     0     0     0     0     0     0
          1     1     1     1     1     1     1     1     1     1     1     1     1     1     1     1     1     1     0     0
          0     0     0     0     0     0     0     0     0     0     0     0
  47      0     0     0     0     0     0     0     0     0     0     0     0     0     0     0     0     0     0     0     0
          0     1     1     1     1     1     1     1     1     1     1     1     1     1     1     1     1     1     0     0
          0     0     0     0     0     0     0     0     0     0     0     0
  48      0     0     0     0     0     0     0     0     0     0     0     0     0     0     0     0     0     0     0     0
          0     1     1     1     1     1     1     1     1     1     1     1     1     1     1     1     1     1     0     0
          0     0     0     0     0     0     0     0     0     0     0     0
  49      0     0     0     0     0     0     0     0     0     0     0     0     0     0     0     0     0     0     0     0
          0     0     1     1     1     1     1     1     1     1     1     1     1     1     1     1     1     1     1     0
          0     0     0     0     0     0     0     0     0     0     0     0
  50      0     0     0     0     0     0     0     0     0     0     0     0     0     0     0     0     0     0     0     0
          0     0     0     1     1     1     1     1     1     1     1     1     1     1     1     1     1     1     1     0
          0     0     0     0     0     0     0     0     0     0     0     0
  51      0     0     0     0     0     0     0     0     0     0     0     0     0     0     0     0     0     0     0     0
          0     0     0     0     1     1     1     1     1     1     1     1     1     1     1     1     1     1     1     0
          0     0     0     0     0     0     0     0     0     0     0     0
  52      0     0     0     0     0     0     0     0     0     0     0     0     0     0     0     0     0     0     0     0
          0     0     0     0     0     1     1     0     1     1     1     1     1     1     1     1     1     1     1     0
          0     0     0     0     0     0     0     0     0     0     0     0
  53      0     0     0     0     0     0     0     0     0     0     0     0     0     0     0     0     0     0     0     0
          0     0     0     0     0     0     0     0     0     1     1     1     1     1     1     1     1     1     1     1
          0     0     0     0     0     0     0     0     0     0     0     0
  54      0     0     0     0     0     0     0     0     0     0     0     0     0     0     0     0     0     0     0     0
          0     0     0     0     0     0     0     0     0     1     1     1     1     1     1     1     1     1     1     1
          0     0     0     0     0     0     0     0     0     0     0     0
  55      0     0     0     0     0     0     0     0     0     0     0     0     0     0     0     0     0     0     0     0
          0     0     0     0     0     0     0     0     0     1     1     1     1     1     1     1     1     1     1     1
          1     0     0     0     0     0     0     0     0     0     0     0
  56      0     0     0     0     0     0     0     0     0     0     0     0     0     0     0     0     0     0     0     0
          0     0     0     0     0     0     0     0     0     1     1     1     1     1     1     1     1     1     1     1
          1     1     0     0     0     0     0     0     0     0     0     0
  57      0     0     0     0     0     0     0     0     0     0     0     0     0     0     0     0     0     0     0     0
          0     0     0     0     0     0     0     0     0     0     1     1     1     1     1     1     1     1     1     1
          1     1     1     0     0     0     0     0     0     0     0     0
  58      0     0     0     0     0     0     0     0     0     0     0     0     0     0     0     0     0     0     0     0
          0     0     0     0     0     0     0     0     0     0     1     1     1     1     1     1     1     1     1     1
          1     1     1     1     0     0     0     0     0     0     0     0
  59      0     0     0     0     0     0     0     0     0     0     0     0     0     0     0     0     0     0     0     0
          0     0     0     0     0     0     0     0     0     0     0     1     1     1     1     1     1     1     1     1
          1     1     1     1     1     0     0     0     0     0     0     0
  60      0     0     0     0     0     0     0     0     0     0     0     0     0     0     0     0     0     0     0     0
          0     0     0     0     0     0     0     0     0     0     0     1     1     1     1     1     1     1     1     1
          1     1     1     1     1     0     0     0     0     0     0     0
  61      0     0     0     0     0     0     0     0     0     0     0     0     0     0     0     0     0     0     0     0
          0     0     0     0     0     0     0     0     0     0     0     0     1     1     1     1     1     1     1     1
          1     1     1     1     1     1     0     0     0     0     0     0
  62      0     0     0     0     0     0     0     0     0     0     0     0     0     0     0     0     0     0     0     0
          0     0     0     0     0     0     0     0     0     0     0     0     1     1     1     1     1     1     1     1
          1     1     1     1     1     1     0     0     0     0     0     0
  63      0     0     0     0     0     0     0     0     0     0     0     0     0     0     0     0     0     0     0     0
          0     0     0     0     0     0     0     0     0     0     0     0     0     1     1     1     1     1     1     1
          1     1     1     1     1     1     0     0     0     0     0     0
  64      0     0     0     0     0     0     0     0     0     0     0     0     0     0     0     0     0     0     0     0
          0     0     0     0     0     0     0     0     0     0     0     0     0     0     1     1     1     1     1     1
          1     1     1     1     1     1     1     0     0     0     0     0
  65      0     0     0     0     0     0     0     0     0     0     0     0     0     0     0     0     0     0     0     0
          0     0     0     0     0     0     0     0     0     0     0     0     0     0     0     1     1     1     1     1
          1     1     1     1     1     1     0     0     0     0     0     0
  66      0     0     0     0     0     0     0     0     0     0     0     0     0     0     0     0     0     0     0     0
          0     0     0     0     0     0     0     0     0     0     0     0     0     0     0     0     0     1     1     1
          1     1     1     1     1     1     0     0     0     0     0     0
  67      0     0     0     0     0     0     0     0     0     0     0     0     0     0     0     0     0     0     0     0
          0     0     0     0     0     0     0     0     0     0     0     0     0     0     0     0     0     0     0     1
          1     1     1     1     1     0     0     0     0     0     0     0
  68      0     0     0     0     0     0     0     0     0     0     0     0     0     0     0     0     0     0     0     0
          0     0     0     0     0     0     0     0     0     0     0     0     0     0     0     0     0     0     0     0
          0     1     1     0     0     0     0     0     0     0     0     0

 AQUIFER HEAD WILL BE SET TO -2.00000E+20 AT ALL NO-FLOW NODES (IBOUND=0).



                       INITIAL HEAD FOR LAYER   1
 READING ON UNIT   13 WITH FORMAT: (FREE)              

            1           2           3           4           5           6           7           8           9          10
           11          12          13          14          15          16          17          18          19          20
           21          22          23          24          25          26          27          28          29          30
           31          32          33          34          35          36          37          38          39          40
           41          42          43          44          45          46          47          48          49          50
           51          52
 ........................................................................................................................
   1   -2.000      -2.000      -2.000      -2.000      -2.000      -2.000      -2.000      -2.000       55.92       54.97    
        46.90       61.92       54.71       66.88       52.85       48.53       57.68       54.92       41.36       34.62    
        30.34       29.40       32.71       36.87       41.30       49.51       64.84       70.92       68.33       79.98    
        90.72       106.9       117.9       137.5       157.0      -2.000      -2.000      -2.000      -2.000      -2.000    
       -2.000      -2.000      -2.000      -2.000      -2.000      -2.000      -2.000      -2.000      -2.000      -2.000    
       -2.000      -2.000    
   2   -2.000      -2.000      -2.000      -2.000      -2.000      -2.000      -2.000       34.58       53.67       55.50    
        57.40       53.49       52.73       62.75       55.05       55.12       48.27       28.60       38.38       28.67    
        28.17       24.49       35.09       38.46       39.51       46.31       50.76       61.83       67.54       76.72    
        100.8       92.02       124.0       140.1       139.6       134.5      -2.000      -2.000      -2.000      -2.000    
       -2.000      -2.000      -2.000      -2.000      -2.000      -2.000      -2.000      -2.000      -2.000      -2.000    
       -2.000      -2.000    
   3   -2.000      -2.000      -2.000      -2.000      -2.000      -2.000       42.33       23.57       26.20       25.68    
        19.20       8.756       20.98       40.71       29.30       27.31       30.91       17.17       15.96       14.45    
        22.54       18.98       32.46       41.44       47.00       46.55       55.44       62.93       68.60       77.00    
        91.47       90.09       95.12       119.9       128.3       141.1       167.3      -2.000      -2.000      -2.000    
       -2.000      -2.000      -2.000      -2.000      -2.000      -2.000      -2.000      -2.000      -2.000      -2.000    
       -2.000      -2.000    
   4   -2.000      -2.000      -2.000      -2.000      -2.000       20.36       26.93       12.44       6.300       6.977    
        4.140       6.075       6.146       5.833       4.870       4.300       8.317       10.86       16.43       15.00    
        17.17       23.82       32.37       42.83       47.22       51.04       60.46       66.93       72.93       76.76    
        84.20       90.40       88.39       115.4       126.8       140.3       193.2       232.5      -2.000      -2.000    
       -2.000      -2.000      -2.000      -2.000      -2.000      -2.000      -2.000      -2.000      -2.000      -2.000    
       -2.000      -2.000    
   5   -2.000      -2.000      -2.000      -2.000       11.83       13.98       12.05       6.950       6.195       4.444    
        2.000       4.022       8.133       5.400       5.625       6.512       6.600       8.889       12.79       15.53    
        15.53       28.53       34.22       40.10       47.05       50.49       58.05       66.71       76.83       76.87    
        86.88       101.8       108.4       115.3       137.2       150.6       186.5       214.8       241.4      -2.000    
       -2.000      -2.000      -2.000      -2.000      -2.000      -2.000      -2.000      -2.000      -2.000      -2.000    
       -2.000      -2.000    
   6    0.000       0.000       0.000       0.000       6.190       8.372       6.075       5.293       5.048       6.958    
        6.068       6.512       5.279       5.524       3.268       6.825       7.500       9.696       16.63       12.57    
        22.64       27.68       32.83       39.05       46.12       51.47       57.93       57.17       67.18       80.60    
        92.12       109.6       131.2       135.5       135.8       144.4       177.5       217.4       253.5       251.3    
        197.0      -2.000      -2.000      -2.000      -2.000      -2.000      -2.000      -2.000      -2.000      -2.000    
       -2.000      -2.000    
   7    0.000       0.000       0.000       0.000       6.933       7.950       6.683       10.98       3.680       3.700    
        8.976       8.500       6.178       8.537       9.683       16.53       14.67       22.88       48.88       35.54    
        21.49       22.10       46.28       50.02       46.32       48.45       54.46       54.95       64.23       86.20    
        108.0       106.2       128.7       126.2       130.9       148.0       153.1       154.5       164.6       168.5    
        169.6      -2.000      -2.000      -2.000      -2.000      -2.000      -2.000      -2.000      -2.000      -2.000    
       -2.000      -2.000    
   8    0.000       0.000       0.000       0.000       5.698       7.200       7.067       9.000       2.952       3.805    
        6.100       5.568       10.60       6.467       8.955       9.244       13.34       27.00       47.54       65.07    
        33.95       26.38       36.02       43.44       40.95       45.17       48.97       48.38       62.33       82.76    
        86.68       103.2       123.4       137.0       128.0       133.4       141.7       169.2       174.3       181.5    
        173.8       185.9      -2.000      -2.000      -2.000      -2.000      -2.000      -2.000      -2.000      -2.000    
       -2.000      -2.000    
   9    0.000       0.000       0.000       0.000       5.267       5.024       7.900       5.511       3.073       7.450    
        7.561       6.700       8.682       8.600       9.415       9.956       12.10       23.85       44.05       76.66    
        57.33       40.41       30.88       31.84       33.61       46.10       42.51       43.18       51.85       56.25    
        64.83       89.07       101.7       110.7       117.1       134.9       148.2       173.1       215.1       234.4    
        255.9       241.6       236.6      -2.000      -2.000      -2.000      -2.000      -2.000      -2.000      -2.000    
       -2.000      -2.000    
  10   -2.000       0.000       0.000       0.000       5.951       4.175       6.545       5.238       6.537       8.822    
        11.10       11.57       12.45       9.854       14.66       13.32       17.81       24.91       59.62       91.93    
        85.44       43.67       32.64       29.59       27.45       42.58       41.80       41.20       47.28       56.83    
        63.67       69.41       83.36       92.27       100.6       116.9       131.9       162.0       199.1       234.4    
        246.2       241.6       243.8       262.0      -2.000      -2.000      -2.000      -2.000      -2.000      -2.000    
       -2.000      -2.000    
  11   -2.000       0.000       0.000       0.000       5.900       5.244       4.667       2.400       4.727       5.829    
        16.76       9.425       11.49       9.375       11.45       18.18       27.33       42.50       70.96       84.29    
        48.75       36.24       24.52       27.47       27.15       43.43       37.43       40.10       47.10       62.05    
        99.48       90.27       92.83       98.62       116.3       126.3       139.6       148.2       161.2       175.4    
        196.8       189.8       213.6       211.3       204.2      -2.000      -2.000      -2.000      -2.000      -2.000    
       -2.000      -2.000    
  12   -2.000       0.000       0.000       0.000       9.415       5.021       4.957       3.350       3.585       4.841    
        10.78       12.63       11.57       10.38       6.326       17.34       22.73       50.67       84.41       57.80    
        31.73       25.54       23.21       27.45       33.10       30.36       31.23       35.88       37.82       62.52    
        108.2       120.2       131.7       115.8       114.5       135.1       144.4       125.8       125.4       135.3    
        144.1       147.0       158.3       175.4       185.5       231.3      -2.000      -2.000      -2.000      -2.000    
       -2.000      -2.000    
  13   -2.000       0.000       0.000       0.000       9.333       6.911       8.775       3.756       3.325       5.956    
        6.476       10.47       12.98       14.80       9.171       12.07       20.78       27.53       51.70       46.44    
        13.49       24.27       25.25       29.37       32.63       23.43       28.58       34.87       29.52       53.44    
        70.66       80.70       95.74       105.6       97.80       121.0       128.5       112.8       111.1       132.0    
        136.8       146.8       142.2       126.2       171.5       260.0       269.9      -2.000      -2.000      -2.000    
       -2.000      -2.000    
  14   -2.000       0.000       0.000       0.000       7.568       4.805       7.073       4.650       4.326       5.239    
        5.682       7.050       13.40       15.02       23.98       15.51       15.29       20.47       19.31       17.73    
        12.67       28.65       24.56       37.05       25.27       16.16       25.44       25.88       41.20       47.12    
        44.97       42.15       50.54       56.23       70.28       86.02       81.62       92.65       101.3       104.2    
        112.9       122.6       138.9       150.1       200.0       263.6       258.0       251.7      -2.000      -2.000    
       -2.000      -2.000    
  15   -2.000       0.000       0.000       0.000       0.000       4.902       4.024       3.378       6.292       5.317    
        4.875       6.805       10.96       14.82       10.88       13.11       9.447       9.625       16.56       15.41    
        23.45       25.85       30.39       29.83       29.50       21.76       28.15       25.88       37.91       35.37    
        38.93       39.47       45.26       47.00       52.22       58.35       62.55       78.81       87.96       94.40    
        95.27       113.7       129.7       151.4       207.6       216.7       220.2       225.5       273.1      -2.000    
       -2.000      -2.000    
  16   -2.000       0.000       0.000       0.000       0.000       4.244       6.977       4.556       4.537       5.300    
        7.098       7.978       11.60       7.844       8.419       13.96       10.93       10.85       12.02       17.80    
        20.07       28.40       31.90       27.69       26.85       29.92       24.27       36.67       42.09       34.09    
        40.85       39.89       46.47       45.59       45.28       47.94       57.44       60.88       75.95       79.53    
        83.61       97.90       114.1       145.8       169.2       188.0       211.1       256.2       288.4       259.0    
       -2.000      -2.000    
  17   -2.000       0.000       0.000       0.000       0.000       4.575       4.878       4.933       5.050       5.902    
        6.262       8.760       10.60       10.54       7.488       10.25       10.98       7.400       13.89       16.62    
        19.40       32.70       25.09       23.14       30.70       31.78       24.87       39.40       37.75       33.29    
        42.12       41.10       47.61       42.69       44.00       52.95       54.88       60.62       66.16       65.17    
        70.88       71.66       92.31       132.4       151.6       164.6       208.8       243.5       211.6       171.8    
        166.2      -2.000    
  18   -2.000       0.000       0.000       0.000       0.000       5.634       4.844       5.000       6.357       6.889    
        7.521       13.07       8.707       9.750       7.600       9.049       10.67       7.133       10.52       12.63    
        19.80       31.85       16.76       25.35       29.27       30.71       31.96       42.30       44.00       33.10    
        41.13       35.90       42.80       48.05       45.80       58.73       60.50       59.12       65.64       58.33    
        70.11       66.45       77.36       106.7       116.6       156.5       185.0       159.1       121.5       92.83    
        92.55       84.92    
  19   -2.000       0.000       0.000       0.000       0.000       4.950       7.553       6.378       7.773       6.195    
        7.864       9.488       6.325       8.310       8.936       7.756       12.40       10.43       23.59       17.42    
        27.27       17.74       22.54       23.56       17.20       31.05       28.43       40.56       41.85       31.02    
        33.70       36.11       46.53       51.43       48.50       53.53       53.51       52.28       56.33       58.67    
        66.68       69.76       66.78       72.51       74.50       110.1       96.93       86.27       79.25       75.27    
        78.00       83.03    
  20   -2.000       0.000       0.000       0.000       0.000       6.940       8.256       6.488       6.775       6.511    
        7.000       6.550       5.163       6.720       6.048       7.825       10.51       13.09       20.20       21.39    
        35.27       22.00       26.10       14.95       19.33       30.76       22.02       38.59       38.31       25.27    
        28.05       28.98       47.41       47.67       46.00       42.58       54.84       55.02       58.72       65.49    
        63.00       66.91       68.71       70.20       72.98       82.67       82.68       73.60       70.48       77.93    
        76.44       82.31    
  21   -2.000       0.000       0.000       0.000       0.000       8.773       4.854       5.925       5.683       5.089    
        8.163       8.600       4.591       6.886       4.425       8.195       9.929       17.84       16.47       23.47    
        31.75       26.14       24.46       22.48       22.72       27.77       24.36       34.91       37.86       24.74    
        32.12       32.15       35.41       39.33       43.24       48.28       63.73       60.05       57.61       59.12    
        58.36       60.14       66.51       72.44       76.29       77.37       77.75       67.27       68.84       81.33    
        84.57       93.44    
  22   -2.000       0.000       0.000       0.000       0.000       9.976       3.250       4.561       3.596       4.267    
        5.881       5.122       5.800       9.400       8.439       11.02       10.57       14.31       20.20       39.25    
        33.56       17.68       17.62       23.85       20.84       24.41       25.60       36.85       22.96       31.02    
        35.46       41.29       30.04       48.49       49.10       44.45       71.78       87.41       61.75       57.62    
        59.49       63.07       65.93       64.83       72.91       76.53       85.05       79.04       84.14       110.6    
        170.2       176.1    
  23   -2.000       0.000       0.000       0.000       0.000       0.000       5.070       5.696       4.723       4.475    
        5.537       5.976       7.140       11.46       14.37       11.51       9.977       12.34       22.40       27.28    
        22.40       23.60       19.78       28.60       26.52       27.95       29.15       37.68       31.63       33.26    
        35.40       36.47       33.49       36.90       40.88       52.47       64.80       76.81       69.16       61.80    
        71.49       62.30       58.76       70.24       76.22       71.96       75.09       93.98       117.7       143.5    
        183.6       241.8    
  24   -2.000       2.400       0.000       0.000       0.000       0.000       6.605       5.044       5.975       7.805    
        6.425       8.044       9.045       8.000      10.000       9.644       11.29       9.300       28.32       19.87    
        19.40       20.76       19.90       25.93       22.92       25.15       26.02       35.38       33.49       29.30    
        29.15       29.91       34.15       39.70       36.24       39.50       54.00       60.12       80.59       91.36    
        121.9       89.27       69.15       78.76       81.67       76.44       96.17       140.8       194.7       194.0    
        219.8       250.7    
  25    1.825       9.805       0.000       0.000       0.000       0.000       6.000       5.568       5.024       5.250    
        5.956       8.625       8.190       11.73       12.60       11.07       9.425       18.27       19.02       16.83    
        17.15       21.27       18.14       17.10       19.41       22.17       28.49       37.52       39.51       33.83    
        37.18       25.59       30.42       41.95       36.34       33.02       51.45       74.95       82.60       98.20    
        129.4       135.3       122.4       125.0       135.9       179.7       168.7       199.8       244.2       241.0    
        258.7       275.1    
  26    8.333      10.000       0.000       0.000       0.000       0.000       5.800       8.415       5.349       4.289    
        7.936       7.293       7.900       9.171       11.38       14.80       15.44       21.98       16.91       19.25    
        16.46       21.20       17.07       21.31       30.04       25.50       24.44       34.71       37.28       38.54    
        39.20       28.49       30.27       36.30       28.07       31.62       53.93       77.68       92.23       108.8    
        106.2       115.8       145.5       159.4       179.5       215.8       202.0       220.3       262.5       263.4    
        266.4       261.5    
  27   10.000      10.000       0.000       0.000       0.000       0.000       3.370       4.422       5.524       6.093    
        10.84       7.475       10.83       8.302       12.07       11.47       13.80       13.56       18.36       21.76    
        22.33       17.18       18.26       25.09       27.08       23.11       25.39       30.85       35.51       28.04    
        40.18       37.17       33.73       29.36       42.55       38.73       67.18       76.76       87.40       100.2    
        120.8       146.1       157.5       158.4       164.2       171.4       201.8       241.3       257.0       262.2    
        252.5       270.7    
  28   10.000      10.000       0.000       0.000       0.000       0.000       5.093       3.100       3.122       4.111    
        5.850       6.585       7.227       9.260       11.51       12.66       22.90       15.13       15.76       24.73    
        22.18       21.14       29.39       31.38       29.51       26.47       29.40       39.91       36.38       21.44    
        39.70       36.17       22.98       31.20       44.71       37.07       84.21       82.20       83.95       94.85    
        119.5       160.5       192.1       188.4       190.5       182.4       220.1       240.9       232.8       246.7    
        264.8       300.9    
  29   10.000      10.000       0.000       0.000       0.000       0.000       6.850       3.659       4.071       6.512    
        8.977       6.156       10.50       7.262       9.951       16.67       17.41       15.24       16.18       17.75    
        17.36       18.90       24.70       27.17       30.52       30.98       38.51       39.93       36.60       34.20    
        41.63       41.15       41.80       43.43       46.62       39.02       58.13       70.98       78.78       100.3    
        137.6       200.1       208.9       218.0       193.4       198.1       214.5       226.4       250.9       274.5    
        295.8       343.7    
  30   10.000      10.000       0.000       0.000       0.000       0.000       4.805       4.450       5.265       6.422    
        6.095       7.350       9.511       13.27       15.75       16.54       14.90       17.20       20.67       18.39    
        16.96       22.55       22.41       26.68       33.30       33.56       42.56       35.00       35.05       34.29    
        42.22       43.07       47.31       42.64       36.90       49.00       54.75       75.72       88.32       110.4    
        164.7       180.4       200.2       204.1       192.1       214.4       215.2       223.6       246.8       276.0    
        323.9       374.7    
  31   10.000      10.000       0.000       0.000       0.000       0.000       6.186       4.979       5.628       9.049    
        6.775       6.409       6.214       12.32       19.98       17.60       18.38       17.38       19.12       23.89    
        24.66       25.00       29.64       30.90       39.38       39.90       39.25       35.58       37.95       39.09    
        40.80       43.43       40.34       24.62       28.76       39.89       54.38       81.42       98.89       117.9    
        155.8       152.8       176.8       189.1       191.7       201.0       228.0       248.2       252.2       267.1    
        290.9       350.6    
  32   -2.000      10.000       0.000       0.000       0.000       11.67       7.976       7.911       6.366       9.475    
        9.805       5.889       10.59       14.58       20.15       19.09       27.05       20.88       20.75       22.96    
        25.47       27.52       33.40       32.98       39.59       45.30       34.88       40.51       35.96       43.05    
        43.64       40.25       48.25       29.15       38.57       47.36       59.27       82.46       102.1       102.6    
        116.5       127.8       151.4       187.6       205.1       224.1       246.7       240.8       265.3       284.9    
        295.7       322.4    
  33   -2.000      -2.000       0.000       0.000       0.000       12.70       7.256       8.512       5.325       6.756    
        9.298       9.745       11.07       16.59       18.95       26.80       21.37       22.39       25.72       22.30    
        23.73       31.67       34.91       39.10       39.83       47.63       47.72       39.42       42.83       44.61    
        46.44       47.97       53.68       45.98       51.04       62.49       71.24       70.12       92.73       99.98    
        112.6       121.1       150.4       182.6       204.0       229.2       254.6       253.8       279.8       295.8    
        317.6       342.5    
  34   -2.000      -2.000       0.000       0.000       0.000       8.537       5.622       3.175       4.727       5.444    
        7.130       6.675       12.17       16.17       26.76       26.61       23.47       24.41       24.02       27.93    
        26.98       37.56       37.64       43.38       44.13       44.32       50.59       46.45       48.76       48.98    
        50.82       56.07       57.09       51.93       52.40       63.22       68.45       77.00       90.35       103.8    
        114.9       116.7       151.0       185.2       214.7       237.1       239.2       243.0       261.3       302.5    
        321.6       347.8    
  35   -2.000      -2.000      -2.000      -2.000       5.000       9.258       10.48       8.467       19.55       12.09    
        10.88       7.415       11.65       16.09       18.96       26.42       27.48       24.18       28.32       31.77    
        27.39       35.94       41.42       43.56       46.98       42.89       49.28       56.71       50.85       49.29    
        54.29       55.29       63.65       60.84       59.05       58.78       66.22       77.06       100.7       105.9    
        122.3       141.5       157.7       189.0       209.0       223.6       234.6       249.2       260.5       292.6    
        325.0       369.1    
  36   -2.000      -2.000      -2.000      -2.000      -2.000       30.50       30.69       27.00       38.75       33.27    
        14.07       16.48       20.04       18.35       18.54       20.77       24.29       26.64       27.30       28.67    
        27.91       29.96       40.47       42.05       39.54       46.55       47.29       51.60       51.32       52.30    
        59.49       57.12       61.33       62.14       55.55       58.31       66.96       81.00       101.4       106.4    
        107.7       134.4       170.4       173.6       199.1       211.7       232.1       249.6       266.0       287.1    
        309.2       337.2    
  37   -2.000      -2.000      -2.000      -2.000      -2.000      -2.000       49.00       50.00       51.09       39.43    
        21.02       15.07       23.62       22.90       17.15       19.17       28.42       32.81       30.87       33.05    
        28.27       33.05       36.49       40.78       43.13       47.11       51.76       55.43       51.82       51.15    
        54.05       57.71       60.22       60.48       54.42       65.34       70.47       81.55       92.90       112.3    
        116.4       157.5       175.3       186.8       204.6       221.0       234.9       249.1       257.7       279.1    
        308.1       341.0    
  38   -2.000      -2.000      -2.000      -2.000      -2.000      -2.000      -2.000       69.00       50.85       29.67    
        20.60       20.56       20.07       21.60       21.12       24.78       26.86       28.00       34.46       39.24    
        35.57       37.85       40.75       41.07       39.56       47.19       53.35       53.00       51.60       51.45    
        62.93       62.02       68.83       66.71       61.73       71.56       75.45       75.54       96.63       107.9    
        118.2       161.3       196.1       217.7       261.3       267.5       250.4       256.2       270.3       283.0    
        297.5       314.6    
  39   -2.000      -2.000      -2.000      -2.000      -2.000      -2.000      -2.000      -2.000       34.00       24.96    
        25.46       22.76       23.08       37.93       63.11       34.80       25.30       28.76       33.05       38.98    
        38.07       38.05       42.09       43.43       41.90       46.40       53.34       48.31       49.53       53.86    
        64.80       68.20       72.95       65.05       69.53       66.89       73.44       67.13       90.18       104.8    
        114.0       135.4       166.3       219.0       259.7       278.6       285.0       282.4       289.5       295.7    
        306.5       310.7    
  40   -2.000      -2.000      -2.000      -2.000      -2.000      -2.000      -2.000      -2.000      -2.000       23.00    
        27.11       29.00       43.98       58.52       76.78       49.52       35.51       51.30       40.48       37.96    
        39.89       45.51       50.21       46.77       46.65       49.51       50.38       46.36       48.62       57.64    
        59.30       65.00       59.20       64.05       74.00       80.07       83.87       80.43       93.27       107.9    
        108.8       118.9       159.4       198.1       233.8       260.5       298.2       303.7       313.6       322.5    
        329.0       327.7    
  41   -2.000      -2.000      -2.000      -2.000      -2.000      -2.000      -2.000      -2.000      -2.000      -2.000    
        28.00       39.75       64.41       70.20       81.80       69.39       54.58       57.33       42.38       38.95    
        43.75       42.68       53.51       48.78       50.24       58.16       53.96       54.24       54.44       55.90    
        61.82       68.07       61.62       63.53       79.37       67.10       82.47       93.73       100.6       108.3    
        131.0       158.8       161.1       183.0       213.5       234.4       279.1       330.3       369.8       372.2    
        360.0       350.8    
  42   -2.000      -2.000      -2.000      -2.000      -2.000      -2.000      -2.000      -2.000      -2.000      -2.000    
       -2.000       42.00       58.50       75.22       87.98       88.26       81.98       67.44       47.07       44.92    
        49.02       53.67       51.49       55.57       54.98       56.84       58.62       57.32       56.97       58.07    
        61.56       66.24       71.98       63.59       74.67       69.78       78.73       100.1       103.7       102.6    
        111.4       151.8       187.8       207.7       256.1       273.9       300.8       352.3       406.2       426.2    
        391.5       387.3    
  43   -2.000      -2.000      -2.000      -2.000      -2.000      -2.000      -2.000      -2.000      -2.000      -2.000    
       -2.000      -2.000       68.00       85.06       91.31       103.9       120.3       78.62       60.72       48.78    
        52.05       56.08       54.49       55.07       56.00       57.78       59.90       61.85       57.07       58.98    
        54.47       68.25       71.49       75.09       83.62       83.05       80.83       91.80       100.6       83.17    
        109.2       148.0       201.5       233.4       270.9       296.0       327.4       352.3       375.6       408.5    
        391.9       396.5    
  44   -2.000      -2.000      -2.000      -2.000      -2.000      -2.000      -2.000      -2.000      -2.000      -2.000    
       -2.000      -2.000      -2.000       93.00       104.8       111.5       121.6       110.8       66.83       49.28    
        55.00       59.16       59.37       58.50       57.86       56.14       61.00       61.47       63.00       59.37    
        64.25       66.95       68.80       76.07       83.38       81.87       84.25       99.34       106.0       116.0    
        128.1       169.0       194.4       237.1       275.6       308.2       318.2       329.9       348.6       370.8    
        400.4       431.8    
  45   -2.000      -2.000      -2.000      -2.000      -2.000      -2.000      -2.000      -2.000      -2.000      -2.000    
       -2.000      -2.000      -2.000      -2.000       109.0       102.5       106.3       110.4       96.27       67.64    
        59.71       57.59       60.97       59.59       60.40       67.36       65.96       63.46       66.11       67.12    
        71.10       68.88       70.37       73.93       84.80       84.68       76.89       93.34       108.0       124.8    
        153.3       164.8       204.7       254.3       276.8       287.3       319.7       322.3       342.5       388.5    
        426.6       498.4    
  46   -2.000      -2.000      -2.000      -2.000      -2.000      -2.000      -2.000      -2.000      -2.000      -2.000    
       -2.000      -2.000      -2.000      -2.000      -2.000       98.00       103.1       115.2       120.1       93.91    
        63.02       59.95       61.59       59.13       65.64       67.80       63.17       70.21       71.60       71.10    
        69.95       75.20       75.07       79.83       81.07       83.31       82.27       88.93       107.8       126.6    
        126.3       150.8       219.8       262.5       265.3       280.2       307.5       340.2       367.4       379.5    
        428.6       493.8    
  47   -2.000      -2.000      -2.000      -2.000      -2.000      -2.000      -2.000      -2.000      -2.000      -2.000    
       -2.000      -2.000      -2.000      -2.000      -2.000      -2.000       122.0       113.9       118.6       77.69    
        63.28       59.14       62.60       62.15       63.00       66.41       66.75       70.38       70.68       74.87    
        77.07       78.84       74.17       79.55       79.20       89.56       84.52       84.60       121.6       132.6    
        127.5       149.7       186.3       225.3       254.5       280.2       319.4       379.8       418.0       421.6    
        432.8       449.1    
  48   -2.000      -2.000      -2.000      -2.000      -2.000      -2.000      -2.000      -2.000      -2.000      -2.000    
       -2.000      -2.000      -2.000      -2.000      -2.000      -2.000      -2.000       96.00       89.65       75.09    
        56.02       61.24       63.63       64.38       67.20       68.25       69.77       75.67       72.84       70.15    
        77.09       79.24       82.07       85.07       81.28       87.42       92.05       84.93       115.6       126.3    
        115.6       164.8       193.2       237.5       260.0       286.4       340.0       410.3       411.8       443.2    
        491.9       480.8    
  49   -2.000      -2.000      -2.000      -2.000      -2.000      -2.000      -2.000      -2.000      -2.000      -2.000    
       -2.000      -2.000      -2.000      -2.000      -2.000      -2.000      -2.000      -2.000       81.00       76.00    
        62.24       63.15       60.56       67.32       69.90       71.04       71.56       79.39       78.75       79.95    
        76.49       78.12       80.45       83.84       83.65       74.88       88.00       88.22       115.4       133.5    
        125.5       158.9       216.3       253.6       274.5       321.7       364.3       400.1       431.4       466.3    
        506.7       525.1    
  50   -2.000      -2.000      -2.000      -2.000      -2.000      -2.000      -2.000      -2.000      -2.000      -2.000    
       -2.000      -2.000      -2.000      -2.000      -2.000      -2.000      -2.000      -2.000      -2.000       67.00    
        76.57       77.73       66.71       66.30       68.98       70.24       76.34       79.47       79.90       75.39    
        79.10       89.42       93.11       90.93       82.57       79.15       92.40       94.82       106.5       120.8    
        141.0       166.5       200.4       256.9       293.2       331.7       379.3       419.8       456.5       482.8    
        525.0       552.7    
  51   -2.000      -2.000      -2.000      -2.000      -2.000      -2.000      -2.000      -2.000      -2.000      -2.000    
       -2.000      -2.000      -2.000      -2.000      -2.000      -2.000      -2.000      -2.000      -2.000      -2.000    
        114.0       99.35       89.07       72.88       70.61       71.84       74.85       82.07       83.27       79.44    
        83.50       88.32       94.46       98.09       87.17       89.20       102.9       102.7       108.3       116.9    
        154.6       179.3       220.8       295.8       330.8       336.4       378.3       407.2       424.6       439.0    
        509.2       503.6    
  52   -2.000      -2.000      -2.000      -2.000      -2.000      -2.000      -2.000      -2.000      -2.000      -2.000    
       -2.000      -2.000      -2.000      -2.000      -2.000      -2.000      -2.000      -2.000      -2.000      -2.000    
       -2.000       121.0       108.8       92.39       75.05       72.49       77.02       84.07       81.24       86.43    
        88.41       80.00       87.49       81.41       89.71       87.87       96.68       101.6       108.1       114.0    
        150.8       174.3       228.7       277.1       295.1       325.1       347.3       368.8       406.6       445.6    
        441.8       402.2    
  53   -2.000      -2.000      -2.000      -2.000      -2.000      -2.000      -2.000      -2.000      -2.000      -2.000    
       -2.000      -2.000      -2.000      -2.000      -2.000      -2.000      -2.000      -2.000      -2.000      -2.000    
       -2.000      -2.000       108.0       94.29       95.76       74.38       74.49       90.30       91.82       85.12    
        84.82       92.66       95.26       95.93       96.56       92.69       99.36       101.0       110.3       113.0    
        131.2       157.8       199.6       241.4       267.9       300.8       325.7       363.0       376.7       373.3    
        353.1       335.0    
  54   -2.000      -2.000      -2.000      -2.000      -2.000      -2.000      -2.000      -2.000      -2.000      -2.000    
       -2.000      -2.000      -2.000      -2.000      -2.000      -2.000      -2.000      -2.000      -2.000      -2.000    
       -2.000      -2.000      -2.000       96.50       101.1       94.54       94.90       94.11       95.71       84.78    
        90.40       94.22       101.9       110.8       116.7       112.2       111.2       112.6       110.8       113.9    
        130.7       151.7       183.0       213.2       246.6       269.7       303.0       310.5       302.7       287.9    
        279.4       311.8    
  55   -2.000      -2.000      -2.000      -2.000      -2.000      -2.000      -2.000      -2.000      -2.000      -2.000    
       -2.000      -2.000      -2.000      -2.000      -2.000      -2.000      -2.000      -2.000      -2.000      -2.000    
       -2.000      -2.000      -2.000      -2.000       103.0       105.5       106.7       115.2       119.6       113.0    
        99.49       100.6       104.4       111.0       118.1       114.0       113.4       110.6       111.7       109.2    
        115.6       146.4       172.6       195.1       219.4       242.4       249.9       257.0       239.1       248.5    
        287.6       332.8    
  56   -2.000      -2.000      -2.000      -2.000      -2.000      -2.000      -2.000      -2.000      -2.000      -2.000    
       -2.000      -2.000      -2.000      -2.000      -2.000      -2.000      -2.000      -2.000      -2.000      -2.000    
       -2.000      -2.000      -2.000      -2.000      -2.000       125.0       129.7       140.0       144.7       129.8    
        106.1       106.5       106.3       110.2       115.5       116.8       112.7       112.9       112.1       114.0    
        119.3       127.9       150.8       175.4       188.4       204.4       208.0       210.6       215.6       236.2    
        264.6       280.5    
  57   -2.000      -2.000      -2.000      -2.000      -2.000      -2.000      -2.000      -2.000      -2.000      -2.000    
       -2.000      -2.000      -2.000      -2.000      -2.000      -2.000      -2.000      -2.000      -2.000      -2.000    
       -2.000      -2.000      -2.000      -2.000      -2.000      -2.000       152.0       143.3       137.1       111.1    
        110.4       109.3       110.0       117.7       124.8       121.7       111.0       113.9       114.0       115.9    
        123.2       116.5       125.5       145.9       164.1       182.5       184.6       189.8       188.7       207.4    
        236.0       287.8    
  58   -2.000      -2.000      -2.000      -2.000      -2.000      -2.000      -2.000      -2.000      -2.000      -2.000    
       -2.000      -2.000      -2.000      -2.000      -2.000      -2.000      -2.000      -2.000      -2.000      -2.000    
       -2.000      -2.000      -2.000      -2.000      -2.000      -2.000      -2.000       139.0       120.1       113.3    
        110.9       113.8       119.1       125.8       121.4       120.2       113.1       110.2       116.3       115.1    
        124.8       119.9       126.5       138.8       151.3       158.2       164.6       172.2       199.1       226.3    
        262.4       321.8    
  59   -2.000      -2.000      -2.000      -2.000      -2.000      -2.000      -2.000      -2.000      -2.000      -2.000    
       -2.000      -2.000      -2.000      -2.000      -2.000      -2.000      -2.000      -2.000      -2.000      -2.000    
       -2.000      -2.000      -2.000      -2.000      -2.000      -2.000      -2.000      -2.000       118.0       113.0    
        113.4       115.5       115.0       114.6       114.6       120.6       116.9       120.1       119.0       113.4    
        124.0       122.8       129.6       129.9       141.3       153.5       171.4       189.9       204.3       231.7    
        273.1       349.3    
  60   -2.000      -2.000      -2.000      -2.000      -2.000      -2.000      -2.000      -2.000      -2.000      -2.000    
       -2.000      -2.000      -2.000      -2.000      -2.000      -2.000      -2.000      -2.000      -2.000      -2.000    
       -2.000      -2.000      -2.000      -2.000      -2.000      -2.000      -2.000      -2.000      -2.000       117.0    
        109.0       115.0       115.0       117.4       118.0       120.5       121.8       123.1       116.7       118.3    
        122.6       125.0       131.5       132.8       134.5       148.4       165.8       178.9       201.5       222.5    
        265.7       323.4    
  61   -2.000      -2.000      -2.000      -2.000      -2.000      -2.000      -2.000      -2.000      -2.000      -2.000    
       -2.000      -2.000      -2.000      -2.000      -2.000      -2.000      -2.000      -2.000      -2.000      -2.000    
       -2.000      -2.000      -2.000      -2.000      -2.000      -2.000      -2.000      -2.000      -2.000      -2.000    
        108.0       113.4       114.1       114.3       117.2       121.9       120.0       119.6       124.6       119.8    
        122.2       127.4       132.3       133.8       135.0       140.1       160.3       182.0       198.2       223.7    
        248.7       278.3    
  62   -2.000      -2.000      -2.000      -2.000      -2.000      -2.000      -2.000      -2.000      -2.000      -2.000    
       -2.000      -2.000      -2.000      -2.000      -2.000      -2.000      -2.000      -2.000      -2.000      -2.000    
       -2.000      -2.000      -2.000      -2.000      -2.000      -2.000      -2.000      -2.000      -2.000      -2.000    
       -2.000       115.5       117.3       118.9       119.9       120.7       121.5       124.2       126.0       132.8    
        132.0       127.8       132.0       131.7       134.7       140.9       155.1       184.9       230.6       272.6    
        283.3      -2.000    
  63   -2.000      -2.000      -2.000      -2.000      -2.000      -2.000      -2.000      -2.000      -2.000      -2.000    
       -2.000      -2.000      -2.000      -2.000      -2.000      -2.000      -2.000      -2.000      -2.000      -2.000    
       -2.000      -2.000      -2.000      -2.000      -2.000      -2.000      -2.000      -2.000      -2.000      -2.000    
       -2.000      -2.000       123.0       123.9       120.7       122.9       123.5       124.8       129.0       137.6    
        134.5       135.3       132.0       137.5       136.2       139.2       152.2       202.4       255.2       272.8    
       -2.000      -2.000    
  64   -2.000      -2.000      -2.000      -2.000      -2.000      -2.000      -2.000      -2.000      -2.000      -2.000    
       -2.000      -2.000      -2.000      -2.000      -2.000      -2.000      -2.000      -2.000      -2.000      -2.000    
       -2.000      -2.000      -2.000      -2.000      -2.000      -2.000      -2.000      -2.000      -2.000      -2.000    
       -2.000      -2.000      -2.000       122.0       128.6       123.6       127.4       125.2       129.7       133.5    
        131.2       135.7       135.4       136.0       143.1       144.8       160.5       203.4       267.0      -2.000    
       -2.000      -2.000    
  65   -2.000      -2.000      -2.000      -2.000      -2.000      -2.000      -2.000      -2.000      -2.000      -2.000    
       -2.000      -2.000      -2.000      -2.000      -2.000      -2.000      -2.000      -2.000      -2.000      -2.000    
       -2.000      -2.000      -2.000      -2.000      -2.000      -2.000      -2.000      -2.000      -2.000      -2.000    
       -2.000      -2.000      -2.000      -2.000       122.0       123.1       132.8       133.5       135.6       135.3    
        137.8       141.2       138.4       140.5       141.5       143.8       161.0       198.2      -2.000      -2.000    
       -2.000      -2.000    
  66   -2.000      -2.000      -2.000      -2.000      -2.000      -2.000      -2.000      -2.000      -2.000      -2.000    
       -2.000      -2.000      -2.000      -2.000      -2.000      -2.000      -2.000      -2.000      -2.000      -2.000    
       -2.000      -2.000      -2.000      -2.000      -2.000      -2.000      -2.000      -2.000      -2.000      -2.000    
       -2.000      -2.000      -2.000      -2.000      -2.000       126.0       133.3       137.5       137.0       134.3    
        140.0       143.2       142.0       144.7       142.9       144.9       147.8      -2.000      -2.000      -2.000    
       -2.000      -2.000    
  67   -2.000      -2.000      -2.000      -2.000      -2.000      -2.000      -2.000      -2.000      -2.000      -2.000    
       -2.000      -2.000      -2.000      -2.000      -2.000      -2.000      -2.000      -2.000      -2.000      -2.000    
       -2.000      -2.000      -2.000      -2.000      -2.000      -2.000      -2.000      -2.000      -2.000      -2.000    
       -2.000      -2.000      -2.000      -2.000      -2.000      -2.000       131.0       134.8       136.1       141.4    
        145.5       145.9       142.3       144.9       145.8       145.8      -2.000      -2.000      -2.000      -2.000    
       -2.000      -2.000    
  68   -2.000      -2.000      -2.000      -2.000      -2.000      -2.000      -2.000      -2.000      -2.000      -2.000    
       -2.000      -2.000      -2.000      -2.000      -2.000      -2.000      -2.000      -2.000      -2.000      -2.000    
       -2.000      -2.000      -2.000      -2.000      -2.000      -2.000      -2.000      -2.000      -2.000      -2.000    
       -2.000      -2.000      -2.000      -2.000      -2.000      -2.000      -2.000       141.0       145.0       142.5    
        148.0       146.1       148.9       150.5       148.2      -2.000      -2.000      -2.000      -2.000      -2.000    
       -2.000      -2.000    



                       INITIAL HEAD FOR LAYER   2
 READING ON UNIT   13 WITH FORMAT: (FREE)              

            1           2           3           4           5           6           7           8           9          10
           11          12          13          14          15          16          17          18          19          20
           21          22          23          24          25          26          27          28          29          30
           31          32          33          34          35          36          37          38          39          40
           41          42          43          44          45          46          47          48          49          50
           51          52
 ........................................................................................................................
   1   -2.000      -2.000      -2.000      -2.000      -2.000      -2.000      -2.000      -2.000       55.92       54.97    
        46.90       61.92       54.71       66.88       52.85       48.53       57.68       54.92       41.36       34.62    
        30.34       29.40       32.71       36.87       41.30       49.51       64.84       70.92       68.33       79.98    
        90.72       106.9       117.9       137.5       157.0      -2.000      -2.000      -2.000      -2.000      -2.000    
       -2.000      -2.000      -2.000      -2.000      -2.000      -2.000      -2.000      -2.000      -2.000      -2.000    
       -2.000      -2.000    
   2   -2.000      -2.000      -2.000      -2.000      -2.000      -2.000      -2.000       34.58       53.67       55.50    
        57.40       53.49       52.73       62.75       55.05       55.12       48.27       28.60       38.38       28.67    
        28.17       24.49       35.09       38.46       39.51       46.31       50.76       61.83       67.54       76.72    
        100.8       92.02       124.0       140.1       139.6       134.5      -2.000      -2.000      -2.000      -2.000    
       -2.000      -2.000      -2.000      -2.000      -2.000      -2.000      -2.000      -2.000      -2.000      -2.000    
       -2.000      -2.000    
   3   -2.000      -2.000      -2.000      -2.000      -2.000      -2.000       42.33       23.57       26.20       25.68    
        19.20       8.756       20.98       40.71       29.30       27.31       30.91       17.17       15.96       14.45    
        22.54       18.98       32.46       41.44       47.00       46.55       55.44       62.93       68.60       77.00    
        91.47       90.09       95.12       119.9       128.3       141.1       167.3      -2.000      -2.000      -2.000    
       -2.000      -2.000      -2.000      -2.000      -2.000      -2.000      -2.000      -2.000      -2.000      -2.000    
       -2.000      -2.000    
   4   -2.000      -2.000      -2.000      -2.000      -2.000       20.36       26.93       12.44       6.300       6.977    
        4.140       6.075       6.146       5.833       4.870       4.300       8.317       10.86       16.43       15.00    
        17.17       23.82       32.37       42.83       47.22       51.04       60.46       66.93       72.93       76.76    
        84.20       90.40       88.39       115.4       126.8       140.3       193.2       232.5      -2.000      -2.000    
       -2.000      -2.000      -2.000      -2.000      -2.000      -2.000      -2.000      -2.000      -2.000      -2.000    
       -2.000      -2.000    
   5   -2.000      -2.000      -2.000      -2.000       11.83       13.98       12.05       6.950       6.195       4.444    
        2.000       4.022       8.133       5.400       5.625       6.512       6.600       8.889       12.79       15.53    
        15.53       28.53       34.22       40.10       47.05       50.49       58.05       66.71       76.83       76.87    
        86.88       101.8       108.4       115.3       137.2       150.6       186.5       214.8       241.4      -2.000    
       -2.000      -2.000      -2.000      -2.000      -2.000      -2.000      -2.000      -2.000      -2.000      -2.000    
       -2.000      -2.000    
   6   -12.00      -12.00      -12.00      -12.00       6.190       8.372       6.075       5.293       5.048       6.958    
        6.068       6.512       5.279       5.524       3.268       6.825       7.500       9.696       16.63       12.57    
        22.64       27.68       32.83       39.05       46.12       51.47       57.93       57.17       67.18       80.60    
        92.12       109.6       131.2       135.5       135.8       144.4       177.5       217.4       253.5       251.3    
        197.0      -2.000      -2.000      -2.000      -2.000      -2.000      -2.000      -2.000      -2.000      -2.000    
       -2.000      -2.000    
   7   -12.00      -12.00      -12.00      -12.00       6.933       7.950       6.683       10.98       3.680       3.700    
        8.976       8.500       6.178       8.537       9.683       16.53       14.67       22.88       48.88       35.54    
        21.49       22.10       46.28       50.02       46.32       48.45       54.46       54.95       64.23       86.20    
        108.0       106.2       128.7       126.2       130.9       148.0       153.1       154.5       164.6       168.5    
        169.6      -2.000      -2.000      -2.000      -2.000      -2.000      -2.000      -2.000      -2.000      -2.000    
       -2.000      -2.000    
   8   -12.00      -12.00      -12.00      -12.00       5.698       7.200       7.067       9.000       2.952       3.805    
        6.100       5.568       10.60       6.467       8.955       9.244       13.34       27.00       47.54       65.07    
        33.95       26.38       36.02       43.44       40.95       45.17       48.97       48.38       62.33       82.76    
        86.68       103.2       123.4       137.0       128.0       133.4       141.7       169.2       174.3       181.5    
        173.8       185.9      -2.000      -2.000      -2.000      -2.000      -2.000      -2.000      -2.000      -2.000    
       -2.000      -2.000    
   9   -12.00      -12.00      -12.00      -12.00       5.267       5.024       7.900       5.511       3.073       7.450    
        7.561       6.700       8.682       8.600       9.415       9.956       12.10       23.85       44.05       76.66    
        57.33       40.41       30.88       31.84       33.61       46.10       42.51       43.18       51.85       56.25    
        64.83       89.07       101.7       110.7       117.1       134.9       148.2       173.1       215.1       234.4    
        255.9       241.6       236.6      -2.000      -2.000      -2.000      -2.000      -2.000      -2.000      -2.000    
       -2.000      -2.000    
  10   -2.000      -12.00      -12.00      -12.00       5.951       4.175       6.545       5.238       6.537       8.822    
        11.10       11.57       12.45       9.854       14.66       13.32       17.81       24.91       59.62       91.93    
        85.44       43.67       32.64       29.59       27.45       42.58       41.80       41.20       47.28       56.83    
        63.67       69.41       83.36       92.27       100.6       116.9       131.9       162.0       199.1       234.4    
        246.2       241.6       243.8       262.0      -2.000      -2.000      -2.000      -2.000      -2.000      -2.000    
       -2.000      -2.000    
  11   -2.000      -12.00      -12.00      -12.00       5.900       5.244       4.667       2.400       4.727       5.829    
        16.76       9.425       11.49       9.375       11.45       18.18       27.33       42.50       70.96       84.29    
        48.75       36.24       24.52       27.47       27.15       43.43       37.43       40.10       47.10       62.05    
        99.48       90.27       92.83       98.62       116.3       126.3       139.6       148.2       161.2       175.4    
        196.8       189.8       213.6       211.3       204.2      -2.000      -2.000      -2.000      -2.000      -2.000    
       -2.000      -2.000    
  12   -2.000      -12.00      -12.00      -12.00       9.415       5.021       4.957       3.350       3.585       4.841    
        10.78       12.63       11.57       10.38       6.326       17.34       22.73       50.67       84.41       57.80    
        31.73       25.54       23.21       27.45       33.10       30.36       31.23       35.88       37.82       62.52    
        108.2       120.2       131.7       115.8       114.5       135.1       144.4       125.8       125.4       135.3    
        144.1       147.0       158.3       175.4       185.5       231.3      -2.000      -2.000      -2.000      -2.000    
       -2.000      -2.000    
  13   -2.000      -12.00      -12.00      -12.00       9.333       6.911       8.775       3.756       3.325       5.956    
        6.476       10.47       12.98       14.80       9.171       12.07       20.78       27.53       51.70       46.44    
        13.49       24.27       25.25       29.37       32.63       23.43       28.58       34.87       29.52       53.44    
        70.66       80.70       95.74       105.6       97.80       121.0       128.5       112.8       111.1       132.0    
        136.8       146.8       142.2       126.2       171.5       260.0       269.9      -2.000      -2.000      -2.000    
       -2.000      -2.000    
  14   -2.000      -12.00      -12.00      -12.00       7.568       4.805       7.073       4.650       4.326       5.239    
        5.682       7.050       13.40       15.02       23.98       15.51       15.29       20.47       19.31       17.73    
        12.67       28.65       24.56       37.05       25.27       16.16       25.44       25.88       41.20       47.12    
        44.97       42.15       50.54       56.23       70.28       86.02       81.62       92.65       101.3       104.2    
        112.9       122.6       138.9       150.1       200.0       263.6       258.0       251.7      -2.000      -2.000    
       -2.000      -2.000    
  15   -2.000      -12.00      -12.00      -12.00      -12.00       4.902       4.024       3.378       6.292       5.317    
        4.875       6.805       10.96       14.82       10.88       13.11       9.447       9.625       16.56       15.41    
        23.45       25.85       30.39       29.83       29.50       21.76       28.15       25.88       37.91       35.37    
        38.93       39.47       45.26       47.00       52.22       58.35       62.55       78.81       87.96       94.40    
        95.27       113.7       129.7       151.4       207.6       216.7       220.2       225.5       273.1      -2.000    
       -2.000      -2.000    
  16   -2.000      -12.00      -12.00      -12.00      -12.00       4.244       6.977       4.556       4.537       5.300    
        7.098       7.978       11.60       7.844       8.419       13.96       10.93       10.85       12.02       17.80    
        20.07       28.40       31.90       27.69       26.85       29.92       24.27       36.67       42.09       34.09    
        40.85       39.89       46.47       45.59       45.28       47.94       57.44       60.88       75.95       79.53    
        83.61       97.90       114.1       145.8       169.2       188.0       211.1       256.2       288.4       259.0    
       -2.000      -2.000    
  17   -2.000      -12.00      -12.00      -12.00      -12.00       4.575       4.878       4.933       5.050       5.902    
        6.262       8.760       10.60       10.54       7.488       10.25       10.98       7.400       13.89       16.62    
        19.40       32.70       25.09       23.14       30.70       31.78       24.87       39.40       37.75       33.29    
        42.12       41.10       47.61       42.69       44.00       52.95       54.88       60.62       66.16       65.17    
        70.88       71.66       92.31       132.4       151.6       164.6       208.8       243.5       211.6       171.8    
        166.2      -2.000    
  18   -2.000      -12.00      -12.00      -12.00      -12.00       5.634       4.844       5.000       6.357       6.889    
        7.521       13.07       8.707       9.750       7.600       9.049       10.67       7.133       10.52       12.63    
        19.80       31.85       16.76       25.35       29.27       30.71       31.96       42.30       44.00       33.10    
        41.13       35.90       42.80       48.05       45.80       58.73       60.50       59.12       65.64       58.33    
        70.11       66.45       77.36       106.7       116.6       156.5       185.0       159.1       121.5       92.83    
        92.55       84.92    
  19   -2.000      -12.00      -12.00      -12.00      -12.00       4.950       7.553       6.378       7.773       6.195    
        7.864       9.488       6.325       8.310       8.936       7.756       12.40       10.43       23.59       17.42    
        27.27       17.74       22.54       23.56       17.20       31.05       28.43       40.56       41.85       31.02    
        33.70       36.11       46.53       51.43       48.50       53.53       53.51       52.28       56.33       58.67    
        66.68       69.76       66.78       72.51       74.50       110.1       96.93       86.27       79.25       75.27    
        78.00       83.03    
  20   -2.000      -12.00      -12.00      -12.00      -12.00       6.940       8.256       6.488       6.775       6.511    
        7.000       6.550       5.163       6.720       6.048       7.825       10.51       13.09       20.20       21.39    
        35.27       22.00       26.10       14.95       19.33       30.76       22.02       38.59       38.31       25.27    
        28.05       28.98       47.41       47.67       46.00       42.58       54.84       55.02       58.72       65.49    
        63.00       66.91       68.71       70.20       72.98       82.67       82.68       73.60       70.48       77.93    
        76.44       82.31    
  21   -2.000      -12.00      -12.00      -12.00      -12.00       8.773       4.854       5.925       5.683       5.089    
        8.163       8.600       4.591       6.886       4.425       8.195       9.929       17.84       16.47       23.47    
        31.75       26.14       24.46       22.48       22.72       27.77       24.36       34.91       37.86       24.74    
        32.12       32.15       35.41       39.33       43.24       48.28       63.73       60.05       57.61       59.12    
        58.36       60.14       66.51       72.44       76.29       77.37       77.75       67.27       68.84       81.33    
        84.57       93.44    
  22   -2.000      -12.00      -12.00      -12.00      -12.00       9.976       3.250       4.561       3.596       4.267    
        5.881       5.122       5.800       9.400       8.439       11.02       10.57       14.31       20.20       39.25    
        33.56       17.68       17.62       23.85       20.84       24.41       25.60       36.85       22.96       31.02    
        35.46       41.29       30.04       48.49       49.10       44.45       71.78       87.41       61.75       57.62    
        59.49       63.07       65.93       64.83       72.91       76.53       85.05       79.04       84.14       110.6    
        170.2       176.1    
  23   -2.000      -12.00      -12.00      -12.00      -12.00      -12.00       5.070       5.696       4.723       4.475    
        5.537       5.976       7.140       11.46       14.37       11.51       9.977       12.34       22.40       27.28    
        22.40       23.60       19.78       28.60       26.52       27.95       29.15       37.68       31.63       33.26    
        35.40       36.47       33.49       36.90       40.88       52.47       64.80       76.81       69.16       61.80    
        71.49       62.30       58.76       70.24       76.22       71.96       75.09       93.98       117.7       143.5    
        183.6       241.8    
  24   -2.000       2.400      -12.00      -12.00      -12.00      -12.00       6.605       5.044       5.975       7.805    
        6.425       8.044       9.045       8.000      10.000       9.644       11.29       9.300       28.32       19.87    
        19.40       20.76       19.90       25.93       22.92       25.15       26.02       35.38       33.49       29.30    
        29.15       29.91       34.15       39.70       36.24       39.50       54.00       60.12       80.59       91.36    
        121.9       89.27       69.15       78.76       81.67       76.44       96.17       140.8       194.7       194.0    
        219.8       250.7    
  25    1.825       9.805      -12.00      -12.00      -12.00      -12.00       6.000       5.568       5.024       5.250    
        5.956       8.625       8.190       11.73       12.60       11.07       9.425       18.27       19.02       16.83    
        17.15       21.27       18.14       17.10       19.41       22.17       28.49       37.52       39.51       33.83    
        37.18       25.59       30.42       41.95       36.34       33.02       51.45       74.95       82.60       98.20    
        129.4       135.3       122.4       125.0       135.9       179.7       168.7       199.8       244.2       241.0    
        258.7       275.1    
  26    8.333      10.000      -12.00      -12.00      -12.00      -12.00       5.800       8.415       5.349       4.289    
        7.936       7.293       7.900       9.171       11.38       14.80       15.44       21.98       16.91       19.25    
        16.46       21.20       17.07       21.31       30.04       25.50       24.44       34.71       37.28       38.54    
        39.20       28.49       30.27       36.30       28.07       31.62       53.93       77.68       92.23       108.8    
        106.2       115.8       145.5       159.4       179.5       215.8       202.0       220.3       262.5       263.4    
        266.4       261.5    
  27   10.000      10.000      -12.00      -12.00      -12.00      -12.00       3.370       4.422       5.524       6.093    
        10.84       7.475       10.83       8.302       12.07       11.47       13.80       13.56       18.36       21.76    
        22.33       17.18       18.26       25.09       27.08       23.11       25.39       30.85       35.51       28.04    
        40.18       37.17       33.73       29.36       42.55       38.73       67.18       76.76       87.40       100.2    
        120.8       146.1       157.5       158.4       164.2       171.4       201.8       241.3       257.0       262.2    
        252.5       270.7    
  28   10.000      10.000      -12.00      -12.00      -12.00      -12.00       5.093       3.100       3.122       4.111    
        5.850       6.585       7.227       9.260       11.51       12.66       22.90       15.13       15.76       24.73    
        22.18       21.14       29.39       31.38       29.51       26.47       29.40       39.91       36.38       21.44    
        39.70       36.17       22.98       31.20       44.71       37.07       84.21       82.20       83.95       94.85    
        119.5       160.5       192.1       188.4       190.5       182.4       220.1       240.9       232.8       246.7    
        264.8       300.9    
  29   10.000      10.000      -12.00      -12.00      -12.00      -12.00       6.850       3.659       4.071       6.512    
        8.977       6.156       10.50       7.262       9.951       16.67       17.41       15.24       16.18       17.75    
        17.36       18.90       24.70       27.17       30.52       30.98       38.51       39.93       36.60       34.20    
        41.63       41.15       41.80       43.43       46.62       39.02       58.13       70.98       78.78       100.3    
        137.6       200.1       208.9       218.0       193.4       198.1       214.5       226.4       250.9       274.5    
        295.8       343.7    
  30   10.000      10.000      -12.00      -12.00      -12.00      -12.00       4.805       4.450       5.265       6.422    
        6.095       7.350       9.511       13.27       15.75       16.54       14.90       17.20       20.67       18.39    
        16.96       22.55       22.41       26.68       33.30       33.56       42.56       35.00       35.05       34.29    
        42.22       43.07       47.31       42.64       36.90       49.00       54.75       75.72       88.32       110.4    
        164.7       180.4       200.2       204.1       192.1       214.4       215.2       223.6       246.8       276.0    
        323.9       374.7    
  31   10.000      10.000      -12.00      -12.00      -12.00      -12.00       6.186       4.979       5.628       9.049    
        6.775       6.409       6.214       12.32       19.98       17.60       18.38       17.38       19.12       23.89    
        24.66       25.00       29.64       30.90       39.38       39.90       39.25       35.58       37.95       39.09    
        40.80       43.43       40.34       24.62       28.76       39.89       54.38       81.42       98.89       117.9    
        155.8       152.8       176.8       189.1       191.7       201.0       228.0       248.2       252.2       267.1    
        290.9       350.6    
  32   -2.000      10.000      -12.00      -12.00      -12.00       11.67       7.976       7.911       6.366       9.475    
        9.805       5.889       10.59       14.58       20.15       19.09       27.05       20.88       20.75       22.96    
        25.47       27.52       33.40       32.98       39.59       45.30       34.88       40.51       35.96       43.05    
        43.64       40.25       48.25       29.15       38.57       47.36       59.27       82.46       102.1       102.6    
        116.5       127.8       151.4       187.6       205.1       224.1       246.7       240.8       265.3       284.9    
        295.7       322.4    
  33   -2.000      -2.000      -12.00      -12.00      -12.00       12.70       7.256       8.512       5.325       6.756    
        9.298       9.745       11.07       16.59       18.95       26.80       21.37       22.39       25.72       22.30    
        23.73       31.67       34.91       39.10       39.83       47.63       47.72       39.42       42.83       44.61    
        46.44       47.97       53.68       45.98       51.04       62.49       71.24       70.12       92.73       99.98    
        112.6       121.1       150.4       182.6       204.0       229.2       254.6       253.8       279.8       295.8    
        317.6       342.5    
  34   -2.000      -2.000      -12.00      -12.00      -12.00       8.537       5.622       3.175       4.727       5.444    
        7.130       6.675       12.17       16.17       26.76       26.61       23.47       24.41       24.02       27.93    
        26.98       37.56       37.64       43.38       44.13       44.32       50.59       46.45       48.76       48.98    
        50.82       56.07       57.09       51.93       52.40       63.22       68.45       77.00       90.35       103.8    
        114.9       116.7       151.0       185.2       214.7       237.1       239.2       243.0       261.3       302.5    
        321.6       347.8    
  35   -2.000      -2.000      -2.000      -2.000       5.000       9.258       10.48       8.467       19.55       12.09    
        10.88       7.415       11.65       16.09       18.96       26.42       27.48       24.18       28.32       31.77    
        27.39       35.94       41.42       43.56       46.98       42.89       49.28       56.71       50.85       49.29    
        54.29       55.29       63.65       60.84       59.05       58.78       66.22       77.06       100.7       105.9    
        122.3       141.5       157.7       189.0       209.0       223.6       234.6       249.2       260.5       292.6    
        325.0       369.1    
  36   -2.000      -2.000      -2.000      -2.000      -2.000       30.50       30.69       27.00       38.75       33.27    
        14.07       16.48       20.04       18.35       18.54       20.77       24.29       26.64       27.30       28.67    
        27.91       29.96       40.47       42.05       39.54       46.55       47.29       51.60       51.32       52.30    
        59.49       57.12       61.33       62.14       55.55       58.31       66.96       81.00       101.4       106.4    
        107.7       134.4       170.4       173.6       199.1       211.7       232.1       249.6       266.0       287.1    
        309.2       337.2    
  37   -2.000      -2.000      -2.000      -2.000      -2.000      -2.000       49.00       50.00       51.09       39.43    
        21.02       15.07       23.62       22.90       17.15       19.17       28.42       32.81       30.87       33.05    
        28.27       33.05       36.49       40.78       43.13       47.11       51.76       55.43       51.82       51.15    
        54.05       57.71       60.22       60.48       54.42       65.34       70.47       81.55       92.90       112.3    
        116.4       157.5       175.3       186.8       204.6       221.0       234.9       249.1       257.7       279.1    
        308.1       341.0    
  38   -2.000      -2.000      -2.000      -2.000      -2.000      -2.000      -2.000       69.00       50.85       29.67    
        20.60       20.56       20.07       21.60       21.12       24.78       26.86       28.00       34.46       39.24    
        35.57       37.85       40.75       41.07       39.56       47.19       53.35       53.00       51.60       51.45    
        62.93       62.02       68.83       66.71       61.73       71.56       75.45       75.54       96.63       107.9    
        118.2       161.3       196.1       217.7       261.3       267.5       250.4       256.2       270.3       283.0    
        297.5       314.6    
  39   -2.000      -2.000      -2.000      -2.000      -2.000      -2.000      -2.000      -2.000       34.00       24.96    
        25.46       22.76       23.08       37.93       63.11       34.80       25.30       28.76       33.05       38.98    
        38.07       38.05       42.09       43.43       41.90       46.40       53.34       48.31       49.53       53.86    
        64.80       68.20       72.95       65.05       69.53       66.89       73.44       67.13       90.18       104.8    
        114.0       135.4       166.3       219.0       259.7       278.6       285.0       282.4       289.5       295.7    
        306.5       310.7    
  40   -2.000      -2.000      -2.000      -2.000      -2.000      -2.000      -2.000      -2.000      -2.000       23.00    
        27.11       29.00       43.98       58.52       76.78       49.52       35.51       51.30       40.48       37.96    
        39.89       45.51       50.21       46.77       46.65       49.51       50.38       46.36       48.62       57.64    
        59.30       65.00       59.20       64.05       74.00       80.07       83.87       80.43       93.27       107.9    
        108.8       118.9       159.4       198.1       233.8       260.5       298.2       303.7       313.6       322.5    
        329.0       327.7    
  41   -2.000      -2.000      -2.000      -2.000      -2.000      -2.000      -2.000      -2.000      -2.000      -2.000    
        28.00       39.75       64.41       70.20       81.80       69.39       54.58       57.33       42.38       38.95    
        43.75       42.68       53.51       48.78       50.24       58.16       53.96       54.24       54.44       55.90    
        61.82       68.07       61.62       63.53       79.37       67.10       82.47       93.73       100.6       108.3    
        131.0       158.8       161.1       183.0       213.5       234.4       279.1       330.3       369.8       372.2    
        360.0       350.8    
  42   -2.000      -2.000      -2.000      -2.000      -2.000      -2.000      -2.000      -2.000      -2.000      -2.000    
       -2.000       42.00       58.50       75.22       87.98       88.26       81.98       67.44       47.07       44.92    
        49.02       53.67       51.49       55.57       54.98       56.84       58.62       57.32       56.97       58.07    
        61.56       66.24       71.98       63.59       74.67       69.78       78.73       100.1       103.7       102.6    
        111.4       151.8       187.8       207.7       256.1       273.9       300.8       352.3       406.2       426.2    
        391.5       387.3    
  43   -2.000      -2.000      -2.000      -2.000      -2.000      -2.000      -2.000      -2.000      -2.000      -2.000    
       -2.000      -2.000       68.00       85.06       91.31       103.9       120.3       78.62       60.72       48.78    
        52.05       56.08       54.49       55.07       56.00       57.78       59.90       61.85       57.07       58.98    
        54.47       68.25       71.49       75.09       83.62       83.05       80.83       91.80       100.6       83.17    
        109.2       148.0       201.5       233.4       270.9       296.0       327.4       352.3       375.6       408.5    
        391.9       396.5    
  44   -2.000      -2.000      -2.000      -2.000      -2.000      -2.000      -2.000      -2.000      -2.000      -2.000    
       -2.000      -2.000      -2.000       93.00       104.8       111.5       121.6       110.8       66.83       49.28    
        55.00       59.16       59.37       58.50       57.86       56.14       61.00       61.47       63.00       59.37    
        64.25       66.95       68.80       76.07       83.38       81.87       84.25       99.34       106.0       116.0    
        128.1       169.0       194.4       237.1       275.6       308.2       318.2       329.9       348.6       370.8    
        400.4       431.8    
  45   -2.000      -2.000      -2.000      -2.000      -2.000      -2.000      -2.000      -2.000      -2.000      -2.000    
       -2.000      -2.000      -2.000      -2.000       109.0       102.5       106.3       110.4       96.27       67.64    
        59.71       57.59       60.97       59.59       60.40       67.36       65.96       63.46       66.11       67.12    
        71.10       68.88       70.37       73.93       84.80       84.68       76.89       93.34       108.0       124.8    
        153.3       164.8       204.7       254.3       276.8       287.3       319.7       322.3       342.5       388.5    
        426.6       498.4    
  46   -2.000      -2.000      -2.000      -2.000      -2.000      -2.000      -2.000      -2.000      -2.000      -2.000    
       -2.000      -2.000      -2.000      -2.000      -2.000       98.00       103.1       115.2       120.1       93.91    
        63.02       59.95       61.59       59.13       65.64       67.80       63.17       70.21       71.60       71.10    
        69.95       75.20       75.07       79.83       81.07       83.31       82.27       88.93       107.8       126.6    
        126.3       150.8       219.8       262.5       265.3       280.2       307.5       340.2       367.4       379.5    
        428.6       493.8    
  47   -2.000      -2.000      -2.000      -2.000      -2.000      -2.000      -2.000      -2.000      -2.000      -2.000    
       -2.000      -2.000      -2.000      -2.000      -2.000      -2.000       122.0       113.9       118.6       77.69    
        63.28       59.14       62.60       62.15       63.00       66.41       66.75       70.38       70.68       74.87    
        77.07       78.84       74.17       79.55       79.20       89.56       84.52       84.60       121.6       132.6    
        127.5       149.7       186.3       225.3       254.5       280.2       319.4       379.8       418.0       421.6    
        432.8       449.1    
  48   -2.000      -2.000      -2.000      -2.000      -2.000      -2.000      -2.000      -2.000      -2.000      -2.000    
       -2.000      -2.000      -2.000      -2.000      -2.000      -2.000      -2.000       96.00       89.65       75.09    
        56.02       61.24       63.63       64.38       67.20       68.25       69.77       75.67       72.84       70.15    
        77.09       79.24       82.07       85.07       81.28       87.42       92.05       84.93       115.6       126.3    
        115.6       164.8       193.2       237.5       260.0       286.4       340.0       410.3       411.8       443.2    
        491.9       480.8    
  49   -2.000      -2.000      -2.000      -2.000      -2.000      -2.000      -2.000      -2.000      -2.000      -2.000    
       -2.000      -2.000      -2.000      -2.000      -2.000      -2.000      -2.000      -2.000       81.00       76.00    
        62.24       63.15       60.56       67.32       69.90       71.04       71.56       79.39       78.75       79.95    
        76.49       78.12       80.45       83.84       83.65       74.88       88.00       88.22       115.4       133.5    
        125.5       158.9       216.3       253.6       274.5       321.7       364.3       400.1       431.4       466.3    
        506.7       525.1    
  50   -2.000      -2.000      -2.000      -2.000      -2.000      -2.000      -2.000      -2.000      -2.000      -2.000    
       -2.000      -2.000      -2.000      -2.000      -2.000      -2.000      -2.000      -2.000      -2.000       67.00    
        76.57       77.73       66.71       66.30       68.98       70.24       76.34       79.47       79.90       75.39    
        79.10       89.42       93.11       90.93       82.57       79.15       92.40       94.82       106.5       120.8    
        141.0       166.5       200.4       256.9       293.2       331.7       379.3       419.8       456.5       482.8    
        525.0       552.7    
  51   -2.000      -2.000      -2.000      -2.000      -2.000      -2.000      -2.000      -2.000      -2.000      -2.000    
       -2.000      -2.000      -2.000      -2.000      -2.000      -2.000      -2.000      -2.000      -2.000      -2.000    
        114.0       99.35       89.07       72.88       70.61       71.84       74.85       82.07       83.27       79.44    
        83.50       88.32       94.46       98.09       87.17       89.20       102.9       102.7       108.3       116.9    
        154.6       179.3       220.8       295.8       330.8       336.4       378.3       407.2       424.6       439.0    
        509.2       503.6    
  52   -2.000      -2.000      -2.000      -2.000      -2.000      -2.000      -2.000      -2.000      -2.000      -2.000    
       -2.000      -2.000      -2.000      -2.000      -2.000      -2.000      -2.000      -2.000      -2.000      -2.000    
       -2.000       121.0       108.8       92.39       75.05       72.49       77.02       84.07       81.24       86.43    
        88.41       80.00       87.49       81.41       89.71       87.87       96.68       101.6       108.1       114.0    
        150.8       174.3       228.7       277.1       295.1       325.1       347.3       368.8       406.6       445.6    
        441.8       402.2    
  53   -2.000      -2.000      -2.000      -2.000      -2.000      -2.000      -2.000      -2.000      -2.000      -2.000    
       -2.000      -2.000      -2.000      -2.000      -2.000      -2.000      -2.000      -2.000      -2.000      -2.000    
       -2.000      -2.000       108.0       94.29       95.76       74.38       74.49       90.30       91.82       85.12    
        84.82       92.66       95.26       95.93       96.56       92.69       99.36       101.0       110.3       113.0    
        131.2       157.8       199.6       241.4       267.9       300.8       325.7       363.0       376.7       373.3    
        353.1       335.0    
  54   -2.000      -2.000      -2.000      -2.000      -2.000      -2.000      -2.000      -2.000      -2.000      -2.000    
       -2.000      -2.000      -2.000      -2.000      -2.000      -2.000      -2.000      -2.000      -2.000      -2.000    
       -2.000      -2.000      -2.000       96.50       101.1       94.54       94.90       94.11       95.71       84.78    
        90.40       94.22       101.9       110.8       116.7       112.2       111.2       112.6       110.8       113.9    
        130.7       151.7       183.0       213.2       246.6       269.7       303.0       310.5       302.7       287.9    
        279.4       311.8    
  55   -2.000      -2.000      -2.000      -2.000      -2.000      -2.000      -2.000      -2.000      -2.000      -2.000    
       -2.000      -2.000      -2.000      -2.000      -2.000      -2.000      -2.000      -2.000      -2.000      -2.000    
       -2.000      -2.000      -2.000      -2.000       103.0       105.5       106.7       115.2       119.6       113.0    
        99.49       100.6       104.4       111.0       118.1       114.0       113.4       110.6       111.7       109.2    
        115.6       146.4       172.6       195.1       219.4       242.4       249.9       257.0       239.1       248.5    
        287.6       332.8    
  56   -2.000      -2.000      -2.000      -2.000      -2.000      -2.000      -2.000      -2.000      -2.000      -2.000    
       -2.000      -2.000      -2.000      -2.000      -2.000      -2.000      -2.000      -2.000      -2.000      -2.000    
       -2.000      -2.000      -2.000      -2.000      -2.000       125.0       129.7       140.0       144.7       129.8    
        106.1       106.5       106.3       110.2       115.5       116.8       112.7       112.9       112.1       114.0    
        119.3       127.9       150.8       175.4       188.4       204.4       208.0       210.6       215.6       236.2    
        264.6       280.5    
  57   -2.000      -2.000      -2.000      -2.000      -2.000      -2.000      -2.000      -2.000      -2.000      -2.000    
       -2.000      -2.000      -2.000      -2.000      -2.000      -2.000      -2.000      -2.000      -2.000      -2.000    
       -2.000      -2.000      -2.000      -2.000      -2.000      -2.000       152.0       143.3       137.1       111.1    
        110.4       109.3       110.0       117.7       124.8       121.7       111.0       113.9       114.0       115.9    
        123.2       116.5       125.5       145.9       164.1       182.5       184.6       189.8       188.7       207.4    
        236.0       287.8    
  58   -2.000      -2.000      -2.000      -2.000      -2.000      -2.000      -2.000      -2.000      -2.000      -2.000    
       -2.000      -2.000      -2.000      -2.000      -2.000      -2.000      -2.000      -2.000      -2.000      -2.000    
       -2.000      -2.000      -2.000      -2.000      -2.000      -2.000      -2.000       139.0       120.1       113.3    
        110.9       113.8       119.1       125.8       121.4       120.2       113.1       110.2       116.3       115.1    
        124.8       119.9       126.5       138.8       151.3       158.2       164.6       172.2       199.1       226.3    
        262.4       321.8    
  59   -2.000      -2.000      -2.000      -2.000      -2.000      -2.000      -2.000      -2.000      -2.000      -2.000    
       -2.000      -2.000      -2.000      -2.000      -2.000      -2.000      -2.000      -2.000      -2.000      -2.000    
       -2.000      -2.000      -2.000      -2.000      -2.000      -2.000      -2.000      -2.000       118.0       113.0    
        113.4       115.5       115.0       114.6       114.6       120.6       116.9       120.1       119.0       113.4    
        124.0       122.8       129.6       129.9       141.3       153.5       171.4       189.9       204.3       231.7    
        273.1       349.3    
  60   -2.000      -2.000      -2.000      -2.000      -2.000      -2.000      -2.000      -2.000      -2.000      -2.000    
       -2.000      -2.000      -2.000      -2.000      -2.000      -2.000      -2.000      -2.000      -2.000      -2.000    
       -2.000      -2.000      -2.000      -2.000      -2.000      -2.000      -2.000      -2.000      -2.000       117.0    
        109.0       115.0       115.0       117.4       118.0       120.5       121.8       123.1       116.7       118.3    
        122.6       125.0       131.5       132.8       134.5       148.4       165.8       178.9       201.5       222.5    
        265.7       323.4    
  61   -2.000      -2.000      -2.000      -2.000      -2.000      -2.000      -2.000      -2.000      -2.000      -2.000    
       -2.000      -2.000      -2.000      -2.000      -2.000      -2.000      -2.000      -2.000      -2.000      -2.000    
       -2.000      -2.000      -2.000      -2.000      -2.000      -2.000      -2.000      -2.000      -2.000      -2.000    
        108.0       113.4       114.1       114.3       117.2       121.9       120.0       119.6       124.6       119.8    
        122.2       127.4       132.3       133.8       135.0       140.1       160.3       182.0       198.2       223.7    
        248.7       278.3    
  62   -2.000      -2.000      -2.000      -2.000      -2.000      -2.000      -2.000      -2.000      -2.000      -2.000    
       -2.000      -2.000      -2.000      -2.000      -2.000      -2.000      -2.000      -2.000      -2.000      -2.000    
       -2.000      -2.000      -2.000      -2.000      -2.000      -2.000      -2.000      -2.000      -2.000      -2.000    
       -2.000       115.5       117.3       118.9       119.9       120.7       121.5       124.2       126.0       132.8    
        132.0       127.8       132.0       131.7       134.7       140.9       155.1       184.9       230.6       272.6    
        283.3      -2.000    
  63   -2.000      -2.000      -2.000      -2.000      -2.000      -2.000      -2.000      -2.000      -2.000      -2.000    
       -2.000      -2.000      -2.000      -2.000      -2.000      -2.000      -2.000      -2.000      -2.000      -2.000    
       -2.000      -2.000      -2.000      -2.000      -2.000      -2.000      -2.000      -2.000      -2.000      -2.000    
       -2.000      -2.000       123.0       123.9       120.7       122.9       123.5       124.8       129.0       137.6    
        134.5       135.3       132.0       137.5       136.2       139.2       152.2       202.4       255.2       272.8    
       -2.000      -2.000    
  64   -2.000      -2.000      -2.000      -2.000      -2.000      -2.000      -2.000      -2.000      -2.000      -2.000    
       -2.000      -2.000      -2.000      -2.000      -2.000      -2.000      -2.000      -2.000      -2.000      -2.000    
       -2.000      -2.000      -2.000      -2.000      -2.000      -2.000      -2.000      -2.000      -2.000      -2.000    
       -2.000      -2.000      -2.000       122.0       128.6       123.6       127.4       125.2       129.7       133.5    
        131.2       135.7       135.4       136.0       143.1       144.8       160.5       203.4       267.0      -2.000    
       -2.000      -2.000    
  65   -2.000      -2.000      -2.000      -2.000      -2.000      -2.000      -2.000      -2.000      -2.000      -2.000    
       -2.000      -2.000      -2.000      -2.000      -2.000      -2.000      -2.000      -2.000      -2.000      -2.000    
       -2.000      -2.000      -2.000      -2.000      -2.000      -2.000      -2.000      -2.000      -2.000      -2.000    
       -2.000      -2.000      -2.000      -2.000       122.0       123.1       132.8       133.5       135.6       135.3    
        137.8       141.2       138.4       140.5       141.5       143.8       161.0       198.2      -2.000      -2.000    
       -2.000      -2.000    
  66   -2.000      -2.000      -2.000      -2.000      -2.000      -2.000      -2.000      -2.000      -2.000      -2.000    
       -2.000      -2.000      -2.000      -2.000      -2.000      -2.000      -2.000      -2.000      -2.000      -2.000    
       -2.000      -2.000      -2.000      -2.000      -2.000      -2.000      -2.000      -2.000      -2.000      -2.000    
       -2.000      -2.000      -2.000      -2.000      -2.000       126.0       133.3       137.5       137.0       134.3    
        140.0       143.2       142.0       144.7       142.9       144.9       147.8      -2.000      -2.000      -2.000    
       -2.000      -2.000    
  67   -2.000      -2.000      -2.000      -2.000      -2.000      -2.000      -2.000      -2.000      -2.000      -2.000    
       -2.000      -2.000      -2.000      -2.000      -2.000      -2.000      -2.000      -2.000      -2.000      -2.000    
       -2.000      -2.000      -2.000      -2.000      -2.000      -2.000      -2.000      -2.000      -2.000      -2.000    
       -2.000      -2.000      -2.000      -2.000      -2.000      -2.000       131.0       134.8       136.1       141.4    
        145.5       145.9       142.3       144.9       145.8       145.8      -2.000      -2.000      -2.000      -2.000    
       -2.000      -2.000    
  68   -2.000      -2.000      -2.000      -2.000      -2.000      -2.000      -2.000      -2.000      -2.000      -2.000    
       -2.000      -2.000      -2.000      -2.000      -2.000      -2.000      -2.000      -2.000      -2.000      -2.000    
       -2.000      -2.000      -2.000      -2.000      -2.000      -2.000      -2.000      -2.000      -2.000      -2.000    
       -2.000      -2.000      -2.000      -2.000      -2.000      -2.000      -2.000       141.0       145.0       142.5    
        148.0       146.1       148.9       150.5       148.2      -2.000      -2.000      -2.000      -2.000      -2.000    
       -2.000      -2.000    
 # Output Control file created on 05/07/2016 by ModelMuse version 3.7.1.0.

 OUTPUT CONTROL IS SPECIFIED ONLY AT TIME STEPS FOR WHICH OUTPUT IS DESIRED
 HEADS WILL BE SAVED WITH FORMAT: (10(1X1PE13.5))     
 SAVED HEADS WILL BE LABELED
 DRAWDOWN WILL BE SAVED WITH FORMAT: (10(1X1PE13.5))     
 SAVED DRAWDOWN WILL BE LABELED
 COMPACT CELL-BY-CELL BUDGET FILES WILL BE WRITTEN
 AUXILIARY DATA WILL BE SAVED IN CELL-BY-CELL BUDGET FILES
 HEAD PRINT FORMAT CODE IS   0    DRAWDOWN PRINT FORMAT CODE IS   0
 HEADS WILL BE SAVED ON UNIT   37    DRAWDOWNS WILL BE SAVED ON UNIT   38

 LPF -- LAYER-PROPERTY FLOW PACKAGE, VERSION 7, 5/2/2005
         INPUT READ FROM UNIT   14
 # LPF: Layer Property Flow package file created on 05/07/2016 by ModelMuse version 3.7.1.0.
 CELL-BY-CELL FLOWS WILL BE SAVED ON UNIT    9
 HEAD AT CELLS THAT CONVERT TO DRY= -1.00000E+20
 No named parameters

   LAYER FLAGS:
 LAYER       LAYTYP        LAYAVG         CHANI        LAYVKA        LAYWET
 ---------------------------------------------------------------------------
    1             1             0    -1.000E+00             0             0
    2             1             0    -1.000E+00             0             0

   INTERPRETATION OF LAYER FLAGS:
                        INTERBLOCK     HORIZONTAL    DATA IN
         LAYER TYPE   TRANSMISSIVITY   ANISOTROPY   ARRAY VKA   WETTABILITY
 LAYER      (LAYTYP)      (LAYAVG)       (CHANI)      (LAYVKA)      (LAYWET)
 ---------------------------------------------------------------------------
    1   CONVERTIBLE      HARMONIC      VARIABLE    VERTICAL K  NON-WETTABLE
    2   CONVERTIBLE      HARMONIC      VARIABLE    VERTICAL K  NON-WETTABLE

 WETTING CAPABILITY IS NOT ACTIVE IN ANY LAYER

    HYD. COND. ALONG ROWS =  5.000000E-05 FOR LAYER   1

   HORIZ. ANI. (COL./ROW) =  1.000000     FOR LAYER   1

      VERTICAL HYD. COND. =  5.000000E-06 FOR LAYER   1

         SPECIFIC STORAGE =  1.200000E-05 FOR LAYER   1

           SPECIFIC YIELD =  0.120000     FOR LAYER   1

    HYD. COND. ALONG ROWS =  5.000000E-05 FOR LAYER   2

   HORIZ. ANI. (COL./ROW) =  1.000000     FOR LAYER   2

      VERTICAL HYD. COND. =  5.000000E-06 FOR LAYER   2

         SPECIFIC STORAGE =  1.200000E-05 FOR LAYER   2

           SPECIFIC YIELD =  0.120000     FOR LAYER   2

 WEL -- WELL PACKAGE, VERSION 7, 5/2/2005 INPUT READ FROM UNIT   20
 # WEL: Well package file created on 05/07/2016 by ModelMuse version 3.7.1.0.
 No named parameters
 MAXIMUM OF    149 ACTIVE WELLS AT ONE TIME
 CELL-BY-CELL FLOWS WILL BE SAVED ON UNIT    9
 AUXILIARY WELL VARIABLE: IFACE           


     0 Well parameters

 RIV -- RIVER PACKAGE, VERSION 7, 5/2/2005 INPUT READ FROM UNIT   21
 # RIV: River package file created on 05/07/2016 by ModelMuse version 3.7.1.0.
 No named parameters
 MAXIMUM OF     79 ACTIVE RIVER REACHES AT ONE TIME
 CELL-BY-CELL FLOWS WILL BE SAVED ON UNIT    9
 AUXILIARY RIVER VARIABLE: IFACE           


     0 River parameters

 EVT -- EVAPOTRANSPIRATION PACKAGE, VERSION 7, 5/2/2005
         INPUT READ FROM UNIT   25
 # EVT: Evapotranspiration package file created on 05/07/2016 by ModelMuse version 3.7.1.0.
 No named parameters
 OPTION 1 -- EVAPOTRANSPIRATION FROM TOP LAYER
 CELL-BY-CELL FLOWS WILL BE SAVED ON UNIT    9


     0 Evapotranspiration parameters

 GHB -- GENERAL-HEAD BOUNDARY PACKAGE, VERSION 7, 5/2/2005
         INPUT READ FROM UNIT   19
 # GHB: General-Head Boundary package file created on 05/07/2016 by ModelMuse version 3.7.1.0.
 No named parameters
 MAXIMUM OF    109 ACTIVE GHB CELLS AT ONE TIME
 CELL-BY-CELL FLOWS WILL BE SAVED ON UNIT    9
 AUXILIARY GHB VARIABLE: IFACE           


     0 GHB parameters

 RCH -- RECHARGE PACKAGE, VERSION 7, 5/2/2005 INPUT READ FROM UNIT   24
 # RCH: Recharge package file created on 05/07/2016 by ModelMuse version 3.7.1.0.
 No named parameters
 OPTION 1 -- RECHARGE TO TOP LAYER
 CELL-BY-CELL FLOWS WILL BE SAVED ON UNIT    9


     0 Recharge parameters

 PCG -- CONJUGATE-GRADIENT SOLUTION PACKAGE, VERSION 7, 5/2/2005
 # PCG: Preconditioned Conjugate Gradient package file created on 05/07/2016 by ModelMuse version 3.7.1.0.
 MAXIMUM OF    100 CALLS OF SOLUTION ROUTINE
 MAXIMUM OF     30 INTERNAL ITERATIONS PER CALL TO SOLUTION ROUTINE
 MATRIX PRECONDITIONING TYPE :    1



                                    SOLUTION BY THE CONJUGATE-GRADIENT METHOD
                                   -------------------------------------------
                    MAXIMUM NUMBER OF CALLS TO PCG ROUTINE =      100
                        MAXIMUM ITERATIONS PER CALL TO PCG =       30
                               MATRIX PRECONDITIONING TYPE =        1
        RELAXATION FACTOR (ONLY USED WITH PRECOND. TYPE 1) =    0.10000E+01
 PARAMETER OF POLYNOMIAL PRECOND. = 2 (2) OR IS CALCULATED :        1
                         HEAD CHANGE CRITERION FOR CLOSURE =    0.10000E-02
                     RESIDUAL CHANGE CRITERION FOR CLOSURE =    0.10000E-02
            PCG HEAD AND RESIDUAL CHANGE PRINTOUT INTERVAL =        1
     PRINTING FROM SOLVER IS LIMITED(1) OR SUPPRESSED (>1) =        0
                            STEADY-STATE DAMPING PARAMETER =    0.10000E+01
                               TRANSIENT DAMPING PARAMETER =    0.10000E+01


 SWI2 -- SWI PACKAGE, VERSION 2.0.0, 07/22/2013
 --------------------------------------------------
 SWI2 INPUT READ FROM UNIT168


 # SWI2: Seawater Intrusion package file created on 05/07/2016 by ModelMuse version 3.7.1.0.
 # Data Set 1: NSRF, ISTRAT, NOBS, ISWIZT, ISWIBD, ISWIOBS


 SWI2 DATASET 1
 ----------------------------------------------------
 NUMBER OF SURFACES (NSRF):                         1
 TOTAL NUMBER OF ZONES:                             2
 DENSITY DISTRIBUTION OPTION (ISTRAT):              1
   VARIABLE DENSITY FLOW -- ISTRAT = 0
   STRATIFIED FLOW       -- ISTRAT = 1
 NUMBER OF SWI OBSERVATIONS (NOBS):                 0
 ZETA OUTPUT FILE UNIT NUMBER (ISWIZT):           170
 BUDGET OUTPUT FILE UNIT NUMBER (ISWICB):           9
 OBSERVATION OUTPUT FILE UNIT NUMBER (ISWIOBS):     0
 ----------------------------------------------------


 SWI2 DATASET 2A
 ----------------------------------------------------
 SOLVER (NSOLVER):                                  2
   SOLVER =  PRECONDITIONED CONJUGATE GRADIENT (PCG)
 SOLVER PRINTOUT INTERVAL (IPRSOL):                 1
 SOLVER OUTPUT FLAG (MUTSOL):                       0
   0 = PRINTING EVERY ITERATION
   1 = LIMITED (TOTAL NUMBER OF ITERATIONS)
   2 = NO PRINTING
   3 = ONLY IF CONVERGENCE FAILS
 ----------------------------------------------------


 SWI2 DATASET 2B
 PRECONDITIONED CONJUGATE GRADIENT PARAMETERS
 ----------------------------------------------------
 MAXIMUM NUMBER OF CALLS TO PCG (MXITER):         200
 MAXIMUM ITERATIONS PER CALL TO PCG (ITER1):      200
 MATRIX PRECONDITIONING TYPE (NPCOND):              1
   1 = MODIFIED INCOMPLETE CHOLESKY
   2 = NEUMAN POLYNOMIAL - THE MATRIX WILL BE SCALED
 ZETA CLOSURE CRITERION (ZCLOSE):         0.10000E-02
 RESIDUAL CLOSURE CRITERION (RCLOSE):     0.10000E-02
 RELAXATION FACTOR (RELAX):               0.30000    
   ONLY USED WITH NPCOND = 1
 POLYNOMIAL PRECONDITIONER PARAMETER (NBPOL):       1
   INTERNALLY CALCULATED IF NPCOND.NE.2
 STEADY-STATE DAMPING (DAMPPCG):          1.00000    
 TRANSIENT DAMPING (DAMPPCGT):            1.00000    
 ----------------------------------------------------


 SWI2 DATASET 3A
 ----------------------------------------------------
 MAXIMUM TOE SURFACE SLOPE (TOESLOPE):      0.200    
 MAXIMUM TIP SURFACE SLOPE (TIPSLOPE):      0.200    
 EXCESS SURFACE SLOPE FRACTION (ALPHA):     0.100E+00
 MINIMUM ZONE THICKNESS FRACTION (BETA):    0.100E+00
 ----------------------------------------------------



                             NUZONE
 READING ON UNIT  168 WITH FORMAT: (FREE)              
   0.0000      2.50000E-02



                   ZETA SURFACE  1  FOR LAYER   1
 READING ON UNIT  168 WITH FORMAT: (FREE)              

            1           2           3           4           5           6           7           8           9          10
           11          12          13          14          15          16          17          18          19          20
           21          22          23          24          25          26          27          28          29          30
           31          32          33          34          35          36          37          38          39          40
           41          42          43          44          45          46          47          48          49          50
           51          52
 ........................................................................................................................
   1   -80.00      -80.00      -80.00      -80.00      -80.00      -80.00      -80.00      -80.00      -80.00      -80.00    
       -80.00      -80.00      -80.00      -80.00      -80.00      -80.00      -80.00      -80.00      -80.00      -80.00    
       -80.00      -80.00      -80.00      -80.00      -80.00      -80.00      -80.00      -80.00      -80.00      -80.00    
       -80.00      -80.00      -80.00      -80.00      -80.00      -80.00      -80.00      -80.00      -80.00      -80.00    
       -80.00      -80.00      -80.00      -80.00      -80.00      -80.00      -80.00      -80.00      -80.00      -80.00    
       -80.00      -80.00    
   2   -80.00      -80.00      -80.00      -80.00      -80.00      -80.00      -80.00      -80.00      -80.00      -80.00    
       -80.00      -80.00      -80.00      -80.00      -80.00      -80.00      -80.00      -80.00      -80.00      -80.00    
       -80.00      -80.00      -80.00      -80.00      -80.00      -80.00      -80.00      -80.00      -80.00      -80.00    
       -80.00      -80.00      -80.00      -80.00      -80.00      -80.00      -80.00      -80.00      -80.00      -80.00    
       -80.00      -80.00      -80.00      -80.00      -80.00      -80.00      -80.00      -80.00      -80.00      -80.00    
       -80.00      -80.00    
   3   -80.00      -80.00      -80.00      -80.00      -80.00      -80.00      -80.00      -80.00      -80.00      -80.00    
       -80.00      -80.00      -80.00      -80.00      -80.00      -80.00      -80.00      -80.00      -80.00      -80.00    
       -80.00      -80.00      -80.00      -80.00      -80.00      -80.00      -80.00      -80.00      -80.00      -80.00    
       -80.00      -80.00      -80.00      -80.00      -80.00      -80.00      -80.00      -80.00      -80.00      -80.00    
       -80.00      -80.00      -80.00      -80.00      -80.00      -80.00      -80.00      -80.00      -80.00      -80.00    
       -80.00      -80.00    
   4   -80.00      -80.00      -80.00      -80.00      -80.00      -80.00      -80.00      -80.00      -80.00      -80.00    
       -80.00      -80.00      -80.00      -80.00      -80.00      -80.00      -80.00      -80.00      -80.00      -80.00    
       -80.00      -80.00      -80.00      -80.00      -80.00      -80.00      -80.00      -80.00      -80.00      -80.00    
       -80.00      -80.00      -80.00      -80.00      -80.00      -80.00      -80.00      -80.00      -80.00      -80.00    
       -80.00      -80.00      -80.00      -80.00      -80.00      -80.00      -80.00      -80.00      -80.00      -80.00    
       -80.00      -80.00    
   5   -80.00      -80.00      -80.00      -80.00      -80.00      -80.00      -80.00      -80.00      -80.00      -80.00    
       -80.00      -80.00      -80.00      -80.00      -80.00      -80.00      -80.00      -80.00      -80.00      -80.00    
       -80.00      -80.00      -80.00      -80.00      -80.00      -80.00      -80.00      -80.00      -80.00      -80.00    
       -80.00      -80.00      -80.00      -80.00      -80.00      -80.00      -80.00      -80.00      -80.00      -80.00    
       -80.00      -80.00      -80.00      -80.00      -80.00      -80.00      -80.00      -80.00      -80.00      -80.00    
       -80.00      -80.00    
   6    0.000       0.000       0.000       0.000      -80.00      -80.00      -80.00      -80.00      -80.00      -80.00    
       -80.00      -80.00      -80.00      -80.00      -80.00      -80.00      -80.00      -80.00      -80.00      -80.00    
       -80.00      -80.00      -80.00      -80.00      -80.00      -80.00      -80.00      -80.00      -80.00      -80.00    
       -80.00      -80.00      -80.00      -80.00      -80.00      -80.00      -80.00      -80.00      -80.00      -80.00    
       -80.00      -80.00      -80.00      -80.00      -80.00      -80.00      -80.00      -80.00      -80.00      -80.00    
       -80.00      -80.00    
   7    0.000       0.000       0.000       0.000      -80.00      -80.00      -80.00      -80.00      -80.00      -80.00    
       -80.00      -80.00      -80.00      -80.00      -80.00      -80.00      -80.00      -80.00      -80.00      -80.00    
       -80.00      -80.00      -80.00      -80.00      -80.00      -80.00      -80.00      -80.00      -80.00      -80.00    
       -80.00      -80.00      -80.00      -80.00      -80.00      -80.00      -80.00      -80.00      -80.00      -80.00    
       -80.00      -80.00      -80.00      -80.00      -80.00      -80.00      -80.00      -80.00      -80.00      -80.00    
       -80.00      -80.00    
   8    0.000       0.000       0.000       0.000      -80.00      -80.00      -80.00      -80.00      -80.00      -80.00    
       -80.00      -80.00      -80.00      -80.00      -80.00      -80.00      -80.00      -80.00      -80.00      -80.00    
       -80.00      -80.00      -80.00      -80.00      -80.00      -80.00      -80.00      -80.00      -80.00      -80.00    
       -80.00      -80.00      -80.00      -80.00      -80.00      -80.00      -80.00      -80.00      -80.00      -80.00    
       -80.00      -80.00      -80.00      -80.00      -80.00      -80.00      -80.00      -80.00      -80.00      -80.00    
       -80.00      -80.00    
   9    0.000       0.000       0.000       0.000      -80.00      -80.00      -80.00      -80.00      -80.00      -80.00    
       -80.00      -80.00      -80.00      -80.00      -80.00      -80.00      -80.00      -80.00      -80.00      -80.00    
       -80.00      -80.00      -80.00      -80.00      -80.00      -80.00      -80.00      -80.00      -80.00      -80.00    
       -80.00      -80.00      -80.00      -80.00      -80.00      -80.00      -80.00      -80.00      -80.00      -80.00    
       -80.00      -80.00      -80.00      -80.00      -80.00      -80.00      -80.00      -80.00      -80.00      -80.00    
       -80.00      -80.00    
  10   -80.00       0.000       0.000       0.000      -80.00      -80.00      -80.00      -80.00      -80.00      -80.00    
       -80.00      -80.00      -80.00      -80.00      -80.00      -80.00      -80.00      -80.00      -80.00      -80.00    
       -80.00      -80.00      -80.00      -80.00      -80.00      -80.00      -80.00      -80.00      -80.00      -80.00    
       -80.00      -80.00      -80.00      -80.00      -80.00      -80.00      -80.00      -80.00      -80.00      -80.00    
       -80.00      -80.00      -80.00      -80.00      -80.00      -80.00      -80.00      -80.00      -80.00      -80.00    
       -80.00      -80.00    
  11   -80.00       0.000       0.000       0.000      -80.00      -80.00      -80.00      -80.00      -80.00      -80.00    
       -80.00      -80.00      -80.00      -80.00      -80.00      -80.00      -80.00      -80.00      -80.00      -80.00    
       -80.00      -80.00      -80.00      -80.00      -80.00      -80.00      -80.00      -80.00      -80.00      -80.00    
       -80.00      -80.00      -80.00      -80.00      -80.00      -80.00      -80.00      -80.00      -80.00      -80.00    
       -80.00      -80.00      -80.00      -80.00      -80.00      -80.00      -80.00      -80.00      -80.00      -80.00    
       -80.00      -80.00    
  12   -80.00       0.000       0.000       0.000      -80.00      -80.00      -80.00      -80.00      -80.00      -80.00    
       -80.00      -80.00      -80.00      -80.00      -80.00      -80.00      -80.00      -80.00      -80.00      -80.00    
       -80.00      -80.00      -80.00      -80.00      -80.00      -80.00      -80.00      -80.00      -80.00      -80.00    
       -80.00      -80.00      -80.00      -80.00      -80.00      -80.00      -80.00      -80.00      -80.00      -80.00    
       -80.00      -80.00      -80.00      -80.00      -80.00      -80.00      -80.00      -80.00      -80.00      -80.00    
       -80.00      -80.00    
  13   -80.00       0.000       0.000       0.000      -80.00      -80.00      -80.00      -80.00      -80.00      -80.00    
       -80.00      -80.00      -80.00      -80.00      -80.00      -80.00      -80.00      -80.00      -80.00      -80.00    
       -80.00      -80.00      -80.00      -80.00      -80.00      -80.00      -80.00      -80.00      -80.00      -80.00    
       -80.00      -80.00      -80.00      -80.00      -80.00      -80.00      -80.00      -80.00      -80.00      -80.00    
       -80.00      -80.00      -80.00      -80.00      -80.00      -80.00      -80.00      -80.00      -80.00      -80.00    
       -80.00      -80.00    
  14   -80.00       0.000       0.000       0.000      -80.00      -80.00      -80.00      -80.00      -80.00      -80.00    
       -80.00      -80.00      -80.00      -80.00      -80.00      -80.00      -80.00      -80.00      -80.00      -80.00    
       -80.00      -80.00      -80.00      -80.00      -80.00      -80.00      -80.00      -80.00      -80.00      -80.00    
       -80.00      -80.00      -80.00      -80.00      -80.00      -80.00      -80.00      -80.00      -80.00      -80.00    
       -80.00      -80.00      -80.00      -80.00      -80.00      -80.00      -80.00      -80.00      -80.00      -80.00    
       -80.00      -80.00    
  15   -80.00       0.000       0.000       0.000       0.000      -80.00      -80.00      -80.00      -80.00      -80.00    
       -80.00      -80.00      -80.00      -80.00      -80.00      -80.00      -80.00      -80.00      -80.00      -80.00    
       -80.00      -80.00      -80.00      -80.00      -80.00      -80.00      -80.00      -80.00      -80.00      -80.00    
       -80.00      -80.00      -80.00      -80.00      -80.00      -80.00      -80.00      -80.00      -80.00      -80.00    
       -80.00      -80.00      -80.00      -80.00      -80.00      -80.00      -80.00      -80.00      -80.00      -80.00    
       -80.00      -80.00    
  16   -80.00       0.000       0.000       0.000       0.000      -80.00      -80.00      -80.00      -80.00      -80.00    
       -80.00      -80.00      -80.00      -80.00      -80.00      -80.00      -80.00      -80.00      -80.00      -80.00    
       -80.00      -80.00      -80.00      -80.00      -80.00      -80.00      -80.00      -80.00      -80.00      -80.00    
       -80.00      -80.00      -80.00      -80.00      -80.00      -80.00      -80.00      -80.00      -80.00      -80.00    
       -80.00      -80.00      -80.00      -80.00      -80.00      -80.00      -80.00      -80.00      -80.00      -80.00    
       -80.00      -80.00    
  17   -80.00       0.000       0.000       0.000       0.000      -80.00      -80.00      -80.00      -80.00      -80.00    
       -80.00      -80.00      -80.00      -80.00      -80.00      -80.00      -80.00      -80.00      -80.00      -80.00    
       -80.00      -80.00      -80.00      -80.00      -80.00      -80.00      -80.00      -80.00      -80.00      -80.00    
       -80.00      -80.00      -80.00      -80.00      -80.00      -80.00      -80.00      -80.00      -80.00      -80.00    
       -80.00      -80.00      -80.00      -80.00      -80.00      -80.00      -80.00      -80.00      -80.00      -80.00    
       -80.00      -80.00    
  18   -80.00       0.000       0.000       0.000       0.000      -80.00      -80.00      -80.00      -80.00      -80.00    
       -80.00      -80.00      -80.00      -80.00      -80.00      -80.00      -80.00      -80.00      -80.00      -80.00    
       -80.00      -80.00      -80.00      -80.00      -80.00      -80.00      -80.00      -80.00      -80.00      -80.00    
       -80.00      -80.00      -80.00      -80.00      -80.00      -80.00      -80.00      -80.00      -80.00      -80.00    
       -80.00      -80.00      -80.00      -80.00      -80.00      -80.00      -80.00      -80.00      -80.00      -80.00    
       -80.00      -80.00    
  19   -80.00       0.000       0.000       0.000       0.000      -80.00      -80.00      -80.00      -80.00      -80.00    
       -80.00      -80.00      -80.00      -80.00      -80.00      -80.00      -80.00      -80.00      -80.00      -80.00    
       -80.00      -80.00      -80.00      -80.00      -80.00      -80.00      -80.00      -80.00      -80.00      -80.00    
       -80.00      -80.00      -80.00      -80.00      -80.00      -80.00      -80.00      -80.00      -80.00      -80.00    
       -80.00      -80.00      -80.00      -80.00      -80.00      -80.00      -80.00      -80.00      -80.00      -80.00    
       -80.00      -80.00    
  20   -80.00       0.000       0.000       0.000       0.000      -80.00      -80.00      -80.00      -80.00      -80.00    
       -80.00      -80.00      -80.00      -80.00      -80.00      -80.00      -80.00      -80.00      -80.00      -80.00    
       -80.00      -80.00      -80.00      -80.00      -80.00      -80.00      -80.00      -80.00      -80.00      -80.00    
       -80.00      -80.00      -80.00      -80.00      -80.00      -80.00      -80.00      -80.00      -80.00      -80.00    
       -80.00      -80.00      -80.00      -80.00      -80.00      -80.00      -80.00      -80.00      -80.00      -80.00    
       -80.00      -80.00    
  21   -80.00       0.000       0.000       0.000       0.000      -80.00      -80.00      -80.00      -80.00      -80.00    
       -80.00      -80.00      -80.00      -80.00      -80.00      -80.00      -80.00      -80.00      -80.00      -80.00    
       -80.00      -80.00      -80.00      -80.00      -80.00      -80.00      -80.00      -80.00      -80.00      -80.00    
       -80.00      -80.00      -80.00      -80.00      -80.00      -80.00      -80.00      -80.00      -80.00      -80.00    
       -80.00      -80.00      -80.00      -80.00      -80.00      -80.00      -80.00      -80.00      -80.00      -80.00    
       -80.00      -80.00    
  22   -80.00       0.000       0.000       0.000       0.000      -80.00      -80.00      -80.00      -80.00      -80.00    
       -80.00      -80.00      -80.00      -80.00      -80.00      -80.00      -80.00      -80.00      -80.00      -80.00    
       -80.00      -80.00      -80.00      -80.00      -80.00      -80.00      -80.00      -80.00      -80.00      -80.00    
       -80.00      -80.00      -80.00      -80.00      -80.00      -80.00      -80.00      -80.00      -80.00      -80.00    
       -80.00      -80.00      -80.00      -80.00      -80.00      -80.00      -80.00      -80.00      -80.00      -80.00    
       -80.00      -80.00    
  23   -80.00       0.000       0.000       0.000       0.000       0.000      -80.00      -80.00      -80.00      -80.00    
       -80.00      -80.00      -80.00      -80.00      -80.00      -80.00      -80.00      -80.00      -80.00      -80.00    
       -80.00      -80.00      -80.00      -80.00      -80.00      -80.00      -80.00      -80.00      -80.00      -80.00    
       -80.00      -80.00      -80.00      -80.00      -80.00      -80.00      -80.00      -80.00      -80.00      -80.00    
       -80.00      -80.00      -80.00      -80.00      -80.00      -80.00      -80.00      -80.00      -80.00      -80.00    
       -80.00      -80.00    
  24   -80.00      -80.00       0.000       0.000       0.000       0.000      -80.00      -80.00      -80.00      -80.00    
       -80.00      -80.00      -80.00      -80.00      -80.00      -80.00      -80.00      -80.00      -80.00      -80.00    
       -80.00      -80.00      -80.00      -80.00      -80.00      -80.00      -80.00      -80.00      -80.00      -80.00    
       -80.00      -80.00      -80.00      -80.00      -80.00      -80.00      -80.00      -80.00      -80.00      -80.00    
       -80.00      -80.00      -80.00      -80.00      -80.00      -80.00      -80.00      -80.00      -80.00      -80.00    
       -80.00      -80.00    
  25   -80.00      -80.00       0.000       0.000       0.000       0.000      -80.00      -80.00      -80.00      -80.00    
       -80.00      -80.00      -80.00      -80.00      -80.00      -80.00      -80.00      -80.00      -80.00      -80.00    
       -80.00      -80.00      -80.00      -80.00      -80.00      -80.00      -80.00      -80.00      -80.00      -80.00    
       -80.00      -80.00      -80.00      -80.00      -80.00      -80.00      -80.00      -80.00      -80.00      -80.00    
       -80.00      -80.00      -80.00      -80.00      -80.00      -80.00      -80.00      -80.00      -80.00      -80.00    
       -80.00      -80.00    
  26   -80.00      -80.00       0.000       0.000       0.000       0.000      -80.00      -80.00      -80.00      -80.00    
       -80.00      -80.00      -80.00      -80.00      -80.00      -80.00      -80.00      -80.00      -80.00      -80.00    
       -80.00      -80.00      -80.00      -80.00      -80.00      -80.00      -80.00      -80.00      -80.00      -80.00    
       -80.00      -80.00      -80.00      -80.00      -80.00      -80.00      -80.00      -80.00      -80.00      -80.00    
       -80.00      -80.00      -80.00      -80.00      -80.00      -80.00      -80.00      -80.00      -80.00      -80.00    
       -80.00      -80.00    
  27   -80.00      -80.00       0.000       0.000       0.000       0.000      -80.00      -80.00      -80.00      -80.00    
       -80.00      -80.00      -80.00      -80.00      -80.00      -80.00      -80.00      -80.00      -80.00      -80.00    
       -80.00      -80.00      -80.00      -80.00      -80.00      -80.00      -80.00      -80.00      -80.00      -80.00    
       -80.00      -80.00      -80.00      -80.00      -80.00      -80.00      -80.00      -80.00      -80.00      -80.00    
       -80.00      -80.00      -80.00      -80.00      -80.00      -80.00      -80.00      -80.00      -80.00      -80.00    
       -80.00      -80.00    
  28   -80.00      -80.00       0.000       0.000       0.000       0.000      -80.00      -80.00      -80.00      -80.00    
       -80.00      -80.00      -80.00      -80.00      -80.00      -80.00      -80.00      -80.00      -80.00      -80.00    
       -80.00      -80.00      -80.00      -80.00      -80.00      -80.00      -80.00      -80.00      -80.00      -80.00    
       -80.00      -80.00      -80.00      -80.00      -80.00      -80.00      -80.00      -80.00      -80.00      -80.00    
       -80.00      -80.00      -80.00      -80.00      -80.00      -80.00      -80.00      -80.00      -80.00      -80.00    
       -80.00      -80.00    
  29   -80.00      -80.00       0.000       0.000       0.000       0.000      -80.00      -80.00      -80.00      -80.00    
       -80.00      -80.00      -80.00      -80.00      -80.00      -80.00      -80.00      -80.00      -80.00      -80.00    
       -80.00      -80.00      -80.00      -80.00      -80.00      -80.00      -80.00      -80.00      -80.00      -80.00    
       -80.00      -80.00      -80.00      -80.00      -80.00      -80.00      -80.00      -80.00      -80.00      -80.00    
       -80.00      -80.00      -80.00      -80.00      -80.00      -80.00      -80.00      -80.00      -80.00      -80.00    
       -80.00      -80.00    
  30   -80.00      -80.00       0.000       0.000       0.000       0.000      -80.00      -80.00      -80.00      -80.00    
       -80.00      -80.00      -80.00      -80.00      -80.00      -80.00      -80.00      -80.00      -80.00      -80.00    
       -80.00      -80.00      -80.00      -80.00      -80.00      -80.00      -80.00      -80.00      -80.00      -80.00    
       -80.00      -80.00      -80.00      -80.00      -80.00      -80.00      -80.00      -80.00      -80.00      -80.00    
       -80.00      -80.00      -80.00      -80.00      -80.00      -80.00      -80.00      -80.00      -80.00      -80.00    
       -80.00      -80.00    
  31   -80.00      -80.00       0.000       0.000       0.000       0.000      -80.00      -80.00      -80.00      -80.00    
       -80.00      -80.00      -80.00      -80.00      -80.00      -80.00      -80.00      -80.00      -80.00      -80.00    
       -80.00      -80.00      -80.00      -80.00      -80.00      -80.00      -80.00      -80.00      -80.00      -80.00    
       -80.00      -80.00      -80.00      -80.00      -80.00      -80.00      -80.00      -80.00      -80.00      -80.00    
       -80.00      -80.00      -80.00      -80.00      -80.00      -80.00      -80.00      -80.00      -80.00      -80.00    
       -80.00      -80.00    
  32   -80.00      -80.00       0.000       0.000       0.000      -80.00      -80.00      -80.00      -80.00      -80.00    
       -80.00      -80.00      -80.00      -80.00      -80.00      -80.00      -80.00      -80.00      -80.00      -80.00    
       -80.00      -80.00      -80.00      -80.00      -80.00      -80.00      -80.00      -80.00      -80.00      -80.00    
       -80.00      -80.00      -80.00      -80.00      -80.00      -80.00      -80.00      -80.00      -80.00      -80.00    
       -80.00      -80.00      -80.00      -80.00      -80.00      -80.00      -80.00      -80.00      -80.00      -80.00    
       -80.00      -80.00    
  33   -80.00      -80.00       0.000       0.000       0.000      -80.00      -80.00      -80.00      -80.00      -80.00    
       -80.00      -80.00      -80.00      -80.00      -80.00      -80.00      -80.00      -80.00      -80.00      -80.00    
       -80.00      -80.00      -80.00      -80.00      -80.00      -80.00      -80.00      -80.00      -80.00      -80.00    
       -80.00      -80.00      -80.00      -80.00      -80.00      -80.00      -80.00      -80.00      -80.00      -80.00    
       -80.00      -80.00      -80.00      -80.00      -80.00      -80.00      -80.00      -80.00      -80.00      -80.00    
       -80.00      -80.00    
  34   -80.00      -80.00       0.000       0.000       0.000      -80.00      -80.00      -80.00      -80.00      -80.00    
       -80.00      -80.00      -80.00      -80.00      -80.00      -80.00      -80.00      -80.00      -80.00      -80.00    
       -80.00      -80.00      -80.00      -80.00      -80.00      -80.00      -80.00      -80.00      -80.00      -80.00    
       -80.00      -80.00      -80.00      -80.00      -80.00      -80.00      -80.00      -80.00      -80.00      -80.00    
       -80.00      -80.00      -80.00      -80.00      -80.00      -80.00      -80.00      -80.00      -80.00      -80.00    
       -80.00      -80.00    
  35   -80.00      -80.00      -80.00      -80.00      -80.00      -80.00      -80.00      -80.00      -80.00      -80.00    
       -80.00      -80.00      -80.00      -80.00      -80.00      -80.00      -80.00      -80.00      -80.00      -80.00    
       -80.00      -80.00      -80.00      -80.00      -80.00      -80.00      -80.00      -80.00      -80.00      -80.00    
       -80.00      -80.00      -80.00      -80.00      -80.00      -80.00      -80.00      -80.00      -80.00      -80.00    
       -80.00      -80.00      -80.00      -80.00      -80.00      -80.00      -80.00      -80.00      -80.00      -80.00    
       -80.00      -80.00    
  36   -80.00      -80.00      -80.00      -80.00      -80.00      -80.00      -80.00      -80.00      -80.00      -80.00    
       -80.00      -80.00      -80.00      -80.00      -80.00      -80.00      -80.00      -80.00      -80.00      -80.00    
       -80.00      -80.00      -80.00      -80.00      -80.00      -80.00      -80.00      -80.00      -80.00      -80.00    
       -80.00      -80.00      -80.00      -80.00      -80.00      -80.00      -80.00      -80.00      -80.00      -80.00    
       -80.00      -80.00      -80.00      -80.00      -80.00      -80.00      -80.00      -80.00      -80.00      -80.00    
       -80.00      -80.00    
  37   -80.00      -80.00      -80.00      -80.00      -80.00      -80.00      -80.00      -80.00      -80.00      -80.00    
       -80.00      -80.00      -80.00      -80.00      -80.00      -80.00      -80.00      -80.00      -80.00      -80.00    
       -80.00      -80.00      -80.00      -80.00      -80.00      -80.00      -80.00      -80.00      -80.00      -80.00    
       -80.00      -80.00      -80.00      -80.00      -80.00      -80.00      -80.00      -80.00      -80.00      -80.00    
       -80.00      -80.00      -80.00      -80.00      -80.00      -80.00      -80.00      -80.00      -80.00      -80.00    
       -80.00      -80.00    
  38   -80.00      -80.00      -80.00      -80.00      -80.00      -80.00      -80.00      -80.00      -80.00      -80.00    
       -80.00      -80.00      -80.00      -80.00      -80.00      -80.00      -80.00      -80.00      -80.00      -80.00    
       -80.00      -80.00      -80.00      -80.00      -80.00      -80.00      -80.00      -80.00      -80.00      -80.00    
       -80.00      -80.00      -80.00      -80.00      -80.00      -80.00      -80.00      -80.00      -80.00      -80.00    
       -80.00      -80.00      -80.00      -80.00      -80.00      -80.00      -80.00      -80.00      -80.00      -80.00    
       -80.00      -80.00    
  39   -80.00      -80.00      -80.00      -80.00      -80.00      -80.00      -80.00      -80.00      -80.00      -80.00    
       -80.00      -80.00      -80.00      -80.00      -80.00      -80.00      -80.00      -80.00      -80.00      -80.00    
       -80.00      -80.00      -80.00      -80.00      -80.00      -80.00      -80.00      -80.00      -80.00      -80.00    
       -80.00      -80.00      -80.00      -80.00      -80.00      -80.00      -80.00      -80.00      -80.00      -80.00    
       -80.00      -80.00      -80.00      -80.00      -80.00      -80.00      -80.00      -80.00      -80.00      -80.00    
       -80.00      -80.00    
  40   -80.00      -80.00      -80.00      -80.00      -80.00      -80.00      -80.00      -80.00      -80.00      -80.00    
       -80.00      -80.00      -80.00      -80.00      -80.00      -80.00      -80.00      -80.00      -80.00      -80.00    
       -80.00      -80.00      -80.00      -80.00      -80.00      -80.00      -80.00      -80.00      -80.00      -80.00    
       -80.00      -80.00      -80.00      -80.00      -80.00      -80.00      -80.00      -80.00      -80.00      -80.00    
       -80.00      -80.00      -80.00      -80.00      -80.00      -80.00      -80.00      -80.00      -80.00      -80.00    
       -80.00      -80.00    
  41   -80.00      -80.00      -80.00      -80.00      -80.00      -80.00      -80.00      -80.00      -80.00      -80.00    
       -80.00      -80.00      -80.00      -80.00      -80.00      -80.00      -80.00      -80.00      -80.00      -80.00    
       -80.00      -80.00      -80.00      -80.00      -80.00      -80.00      -80.00      -80.00      -80.00      -80.00    
       -80.00      -80.00      -80.00      -80.00      -80.00      -80.00      -80.00      -80.00      -80.00      -80.00    
       -80.00      -80.00      -80.00      -80.00      -80.00      -80.00      -80.00      -80.00      -80.00      -80.00    
       -80.00      -80.00    
  42   -80.00      -80.00      -80.00      -80.00      -80.00      -80.00      -80.00      -80.00      -80.00      -80.00    
       -80.00      -80.00      -80.00      -80.00      -80.00      -80.00      -80.00      -80.00      -80.00      -80.00    
       -80.00      -80.00      -80.00      -80.00      -80.00      -80.00      -80.00      -80.00      -80.00      -80.00    
       -80.00      -80.00      -80.00      -80.00      -80.00      -80.00      -80.00      -80.00      -80.00      -80.00    
       -80.00      -80.00      -80.00      -80.00      -80.00      -80.00      -80.00      -80.00      -80.00      -80.00    
       -80.00      -80.00    
  43   -80.00      -80.00      -80.00      -80.00      -80.00      -80.00      -80.00      -80.00      -80.00      -80.00    
       -80.00      -80.00      -80.00      -80.00      -80.00      -80.00      -80.00      -80.00      -80.00      -80.00    
       -80.00      -80.00      -80.00      -80.00      -80.00      -80.00      -80.00      -80.00      -80.00      -80.00    
       -80.00      -80.00      -80.00      -80.00      -80.00      -80.00      -80.00      -80.00      -80.00      -80.00    
       -80.00      -80.00      -80.00      -80.00      -80.00      -80.00      -80.00      -80.00      -80.00      -80.00    
       -80.00      -80.00    
  44   -80.00      -80.00      -80.00      -80.00      -80.00      -80.00      -80.00      -80.00      -80.00      -80.00    
       -80.00      -80.00      -80.00      -80.00      -80.00      -80.00      -80.00      -80.00      -80.00      -80.00    
       -80.00      -80.00      -80.00      -80.00      -80.00      -80.00      -80.00      -80.00      -80.00      -80.00    
       -80.00      -80.00      -80.00      -80.00      -80.00      -80.00      -80.00      -80.00      -80.00      -80.00    
       -80.00      -80.00      -80.00      -80.00      -80.00      -80.00      -80.00      -80.00      -80.00      -80.00    
       -80.00      -80.00    
  45   -80.00      -80.00      -80.00      -80.00      -80.00      -80.00      -80.00      -80.00      -80.00      -80.00    
       -80.00      -80.00      -80.00      -80.00      -80.00      -80.00      -80.00      -80.00      -80.00      -80.00    
       -80.00      -80.00      -80.00      -80.00      -80.00      -80.00      -80.00      -80.00      -80.00      -80.00    
       -80.00      -80.00      -80.00      -80.00      -80.00      -80.00      -80.00      -80.00      -80.00      -80.00    
       -80.00      -80.00      -80.00      -80.00      -80.00      -80.00      -80.00      -80.00      -80.00      -80.00    
       -80.00      -80.00    
  46   -80.00      -80.00      -80.00      -80.00      -80.00      -80.00      -80.00      -80.00      -80.00      -80.00    
       -80.00      -80.00      -80.00      -80.00      -80.00      -80.00      -80.00      -80.00      -80.00      -80.00    
       -80.00      -80.00      -80.00      -80.00      -80.00      -80.00      -80.00      -80.00      -80.00      -80.00    
       -80.00      -80.00      -80.00      -80.00      -80.00      -80.00      -80.00      -80.00      -80.00      -80.00    
       -80.00      -80.00      -80.00      -80.00      -80.00      -80.00      -80.00      -80.00      -80.00      -80.00    
       -80.00      -80.00    
  47   -80.00      -80.00      -80.00      -80.00      -80.00      -80.00      -80.00      -80.00      -80.00      -80.00    
       -80.00      -80.00      -80.00      -80.00      -80.00      -80.00      -80.00      -80.00      -80.00      -80.00    
       -80.00      -80.00      -80.00      -80.00      -80.00      -80.00      -80.00      -80.00      -80.00      -80.00    
       -80.00      -80.00      -80.00      -80.00      -80.00      -80.00      -80.00      -80.00      -80.00      -80.00    
       -80.00      -80.00      -80.00      -80.00      -80.00      -80.00      -80.00      -80.00      -80.00      -80.00    
       -80.00      -80.00    
  48   -80.00      -80.00      -80.00      -80.00      -80.00      -80.00      -80.00      -80.00      -80.00      -80.00    
       -80.00      -80.00      -80.00      -80.00      -80.00      -80.00      -80.00      -80.00      -80.00      -80.00    
       -80.00      -80.00      -80.00      -80.00      -80.00      -80.00      -80.00      -80.00      -80.00      -80.00    
       -80.00      -80.00      -80.00      -80.00      -80.00      -80.00      -80.00      -80.00      -80.00      -80.00    
       -80.00      -80.00      -80.00      -80.00      -80.00      -80.00      -80.00      -80.00      -80.00      -80.00    
       -80.00      -80.00    
  49   -80.00      -80.00      -80.00      -80.00      -80.00      -80.00      -80.00      -80.00      -80.00      -80.00    
       -80.00      -80.00      -80.00      -80.00      -80.00      -80.00      -80.00      -80.00      -80.00      -80.00    
       -80.00      -80.00      -80.00      -80.00      -80.00      -80.00      -80.00      -80.00      -80.00      -80.00    
       -80.00      -80.00      -80.00      -80.00      -80.00      -80.00      -80.00      -80.00      -80.00      -80.00    
       -80.00      -80.00      -80.00      -80.00      -80.00      -80.00      -80.00      -80.00      -80.00      -80.00    
       -80.00      -80.00    
  50   -80.00      -80.00      -80.00      -80.00      -80.00      -80.00      -80.00      -80.00      -80.00      -80.00    
       -80.00      -80.00      -80.00      -80.00      -80.00      -80.00      -80.00      -80.00      -80.00      -80.00    
       -80.00      -80.00      -80.00      -80.00      -80.00      -80.00      -80.00      -80.00      -80.00      -80.00    
       -80.00      -80.00      -80.00      -80.00      -80.00      -80.00      -80.00      -80.00      -80.00      -80.00    
       -80.00      -80.00      -80.00      -80.00      -80.00      -80.00      -80.00      -80.00      -80.00      -80.00    
       -80.00      -80.00    
  51   -80.00      -80.00      -80.00      -80.00      -80.00      -80.00      -80.00      -80.00      -80.00      -80.00    
       -80.00      -80.00      -80.00      -80.00      -80.00      -80.00      -80.00      -80.00      -80.00      -80.00    
       -80.00      -80.00      -80.00      -80.00      -80.00      -80.00      -80.00      -80.00      -80.00      -80.00    
       -80.00      -80.00      -80.00      -80.00      -80.00      -80.00      -80.00      -80.00      -80.00      -80.00    
       -80.00      -80.00      -80.00      -80.00      -80.00      -80.00      -80.00      -80.00      -80.00      -80.00    
       -80.00      -80.00    
  52   -80.00      -80.00      -80.00      -80.00      -80.00      -80.00      -80.00      -80.00      -80.00      -80.00    
       -80.00      -80.00      -80.00      -80.00      -80.00      -80.00      -80.00      -80.00      -80.00      -80.00    
       -80.00      -80.00      -80.00      -80.00      -80.00      -80.00      -80.00      -80.00      -80.00      -80.00    
       -80.00      -80.00      -80.00      -80.00      -80.00      -80.00      -80.00      -80.00      -80.00      -80.00    
       -80.00      -80.00      -80.00      -80.00      -80.00      -80.00      -80.00      -80.00      -80.00      -80.00    
       -80.00      -80.00    
  53   -80.00      -80.00      -80.00      -80.00      -80.00      -80.00      -80.00      -80.00      -80.00      -80.00    
       -80.00      -80.00      -80.00      -80.00      -80.00      -80.00      -80.00      -80.00      -80.00      -80.00    
       -80.00      -80.00      -80.00      -80.00      -80.00      -80.00      -80.00      -80.00      -80.00      -80.00    
       -80.00      -80.00      -80.00      -80.00      -80.00      -80.00      -80.00      -80.00      -80.00      -80.00    
       -80.00      -80.00      -80.00      -80.00      -80.00      -80.00      -80.00      -80.00      -80.00      -80.00    
       -80.00      -80.00    
  54   -80.00      -80.00      -80.00      -80.00      -80.00      -80.00      -80.00      -80.00      -80.00      -80.00    
       -80.00      -80.00      -80.00      -80.00      -80.00      -80.00      -80.00      -80.00      -80.00      -80.00    
       -80.00      -80.00      -80.00      -80.00      -80.00      -80.00      -80.00      -80.00      -80.00      -80.00    
       -80.00      -80.00      -80.00      -80.00      -80.00      -80.00      -80.00      -80.00      -80.00      -80.00    
       -80.00      -80.00      -80.00      -80.00      -80.00      -80.00      -80.00      -80.00      -80.00      -80.00    
       -80.00      -80.00    
  55   -80.00      -80.00      -80.00      -80.00      -80.00      -80.00      -80.00      -80.00      -80.00      -80.00    
       -80.00      -80.00      -80.00      -80.00      -80.00      -80.00      -80.00      -80.00      -80.00      -80.00    
       -80.00      -80.00      -80.00      -80.00      -80.00      -80.00      -80.00      -80.00      -80.00      -80.00    
       -80.00      -80.00      -80.00      -80.00      -80.00      -80.00      -80.00      -80.00      -80.00      -80.00    
       -80.00      -80.00      -80.00      -80.00      -80.00      -80.00      -80.00      -80.00      -80.00      -80.00    
       -80.00      -80.00    
  56   -80.00      -80.00      -80.00      -80.00      -80.00      -80.00      -80.00      -80.00      -80.00      -80.00    
       -80.00      -80.00      -80.00      -80.00      -80.00      -80.00      -80.00      -80.00      -80.00      -80.00    
       -80.00      -80.00      -80.00      -80.00      -80.00      -80.00      -80.00      -80.00      -80.00      -80.00    
       -80.00      -80.00      -80.00      -80.00      -80.00      -80.00      -80.00      -80.00      -80.00      -80.00    
       -80.00      -80.00      -80.00      -80.00      -80.00      -80.00      -80.00      -80.00      -80.00      -80.00    
       -80.00      -80.00    
  57   -80.00      -80.00      -80.00      -80.00      -80.00      -80.00      -80.00      -80.00      -80.00      -80.00    
       -80.00      -80.00      -80.00      -80.00      -80.00      -80.00      -80.00      -80.00      -80.00      -80.00    
       -80.00      -80.00      -80.00      -80.00      -80.00      -80.00      -80.00      -80.00      -80.00      -80.00    
       -80.00      -80.00      -80.00      -80.00      -80.00      -80.00      -80.00      -80.00      -80.00      -80.00    
       -80.00      -80.00      -80.00      -80.00      -80.00      -80.00      -80.00      -80.00      -80.00      -80.00    
       -80.00      -80.00    
  58   -80.00      -80.00      -80.00      -80.00      -80.00      -80.00      -80.00      -80.00      -80.00      -80.00    
       -80.00      -80.00      -80.00      -80.00      -80.00      -80.00      -80.00      -80.00      -80.00      -80.00    
       -80.00      -80.00      -80.00      -80.00      -80.00      -80.00      -80.00      -80.00      -80.00      -80.00    
       -80.00      -80.00      -80.00      -80.00      -80.00      -80.00      -80.00      -80.00      -80.00      -80.00    
       -80.00      -80.00      -80.00      -80.00      -80.00      -80.00      -80.00      -80.00      -80.00      -80.00    
       -80.00      -80.00    
  59   -80.00      -80.00      -80.00      -80.00      -80.00      -80.00      -80.00      -80.00      -80.00      -80.00    
       -80.00      -80.00      -80.00      -80.00      -80.00      -80.00      -80.00      -80.00      -80.00      -80.00    
       -80.00      -80.00      -80.00      -80.00      -80.00      -80.00      -80.00      -80.00      -80.00      -80.00    
       -80.00      -80.00      -80.00      -80.00      -80.00      -80.00      -80.00      -80.00      -80.00      -80.00    
       -80.00      -80.00      -80.00      -80.00      -80.00      -80.00      -80.00      -80.00      -80.00      -80.00    
       -80.00      -80.00    
  60   -80.00      -80.00      -80.00      -80.00      -80.00      -80.00      -80.00      -80.00      -80.00      -80.00    
       -80.00      -80.00      -80.00      -80.00      -80.00      -80.00      -80.00      -80.00      -80.00      -80.00    
       -80.00      -80.00      -80.00      -80.00      -80.00      -80.00      -80.00      -80.00      -80.00      -80.00    
       -80.00      -80.00      -80.00      -80.00      -80.00      -80.00      -80.00      -80.00      -80.00      -80.00    
       -80.00      -80.00      -80.00      -80.00      -80.00      -80.00      -80.00      -80.00      -80.00      -80.00    
       -80.00      -80.00    
  61   -80.00      -80.00      -80.00      -80.00      -80.00      -80.00      -80.00      -80.00      -80.00      -80.00    
       -80.00      -80.00      -80.00      -80.00      -80.00      -80.00      -80.00      -80.00      -80.00      -80.00    
       -80.00      -80.00      -80.00      -80.00      -80.00      -80.00      -80.00      -80.00      -80.00      -80.00    
       -80.00      -80.00      -80.00      -80.00      -80.00      -80.00      -80.00      -80.00      -80.00      -80.00    
       -80.00      -80.00      -80.00      -80.00      -80.00      -80.00      -80.00      -80.00      -80.00      -80.00    
       -80.00      -80.00    
  62   -80.00      -80.00      -80.00      -80.00      -80.00      -80.00      -80.00      -80.00      -80.00      -80.00    
       -80.00      -80.00      -80.00      -80.00      -80.00      -80.00      -80.00      -80.00      -80.00      -80.00    
       -80.00      -80.00      -80.00      -80.00      -80.00      -80.00      -80.00      -80.00      -80.00      -80.00    
       -80.00      -80.00      -80.00      -80.00      -80.00      -80.00      -80.00      -80.00      -80.00      -80.00    
       -80.00      -80.00      -80.00      -80.00      -80.00      -80.00      -80.00      -80.00      -80.00      -80.00    
       -80.00      -80.00    
  63   -80.00      -80.00      -80.00      -80.00      -80.00      -80.00      -80.00      -80.00      -80.00      -80.00    
       -80.00      -80.00      -80.00      -80.00      -80.00      -80.00      -80.00      -80.00      -80.00      -80.00    
       -80.00      -80.00      -80.00      -80.00      -80.00      -80.00      -80.00      -80.00      -80.00      -80.00    
       -80.00      -80.00      -80.00      -80.00      -80.00      -80.00      -80.00      -80.00      -80.00      -80.00    
       -80.00      -80.00      -80.00      -80.00      -80.00      -80.00      -80.00      -80.00      -80.00      -80.00    
       -80.00      -80.00    
  64   -80.00      -80.00      -80.00      -80.00      -80.00      -80.00      -80.00      -80.00      -80.00      -80.00    
       -80.00      -80.00      -80.00      -80.00      -80.00      -80.00      -80.00      -80.00      -80.00      -80.00    
       -80.00      -80.00      -80.00      -80.00      -80.00      -80.00      -80.00      -80.00      -80.00      -80.00    
       -80.00      -80.00      -80.00      -80.00      -80.00      -80.00      -80.00      -80.00      -80.00      -80.00    
       -80.00      -80.00      -80.00      -80.00      -80.00      -80.00      -80.00      -80.00      -80.00      -80.00    
       -80.00      -80.00    
  65   -80.00      -80.00      -80.00      -80.00      -80.00      -80.00      -80.00      -80.00      -80.00      -80.00    
       -80.00      -80.00      -80.00      -80.00      -80.00      -80.00      -80.00      -80.00      -80.00      -80.00    
       -80.00      -80.00      -80.00      -80.00      -80.00      -80.00      -80.00      -80.00      -80.00      -80.00    
       -80.00      -80.00      -80.00      -80.00      -80.00      -80.00      -80.00      -80.00      -80.00      -80.00    
       -80.00      -80.00      -80.00      -80.00      -80.00      -80.00      -80.00      -80.00      -80.00      -80.00    
       -80.00      -80.00    
  66   -80.00      -80.00      -80.00      -80.00      -80.00      -80.00      -80.00      -80.00      -80.00      -80.00    
       -80.00      -80.00      -80.00      -80.00      -80.00      -80.00      -80.00      -80.00      -80.00      -80.00    
       -80.00      -80.00      -80.00      -80.00      -80.00      -80.00      -80.00      -80.00      -80.00      -80.00    
       -80.00      -80.00      -80.00      -80.00      -80.00      -80.00      -80.00      -80.00      -80.00      -80.00    
       -80.00      -80.00      -80.00      -80.00      -80.00      -80.00      -80.00      -80.00      -80.00      -80.00    
       -80.00      -80.00    
  67   -80.00      -80.00      -80.00      -80.00      -80.00      -80.00      -80.00      -80.00      -80.00      -80.00    
       -80.00      -80.00      -80.00      -80.00      -80.00      -80.00      -80.00      -80.00      -80.00      -80.00    
       -80.00      -80.00      -80.00      -80.00      -80.00      -80.00      -80.00      -80.00      -80.00      -80.00    
       -80.00      -80.00      -80.00      -80.00      -80.00      -80.00      -80.00      -80.00      -80.00      -80.00    
       -80.00      -80.00      -80.00      -80.00      -80.00      -80.00      -80.00      -80.00      -80.00      -80.00    
       -80.00      -80.00    
  68   -80.00      -80.00      -80.00      -80.00      -80.00      -80.00      -80.00      -80.00      -80.00      -80.00    
       -80.00      -80.00      -80.00      -80.00      -80.00      -80.00      -80.00      -80.00      -80.00      -80.00    
       -80.00      -80.00      -80.00      -80.00      -80.00      -80.00      -80.00      -80.00      -80.00      -80.00    
       -80.00      -80.00      -80.00      -80.00      -80.00      -80.00      -80.00      -80.00      -80.00      -80.00    
       -80.00      -80.00      -80.00      -80.00      -80.00      -80.00      -80.00      -80.00      -80.00      -80.00    
       -80.00      -80.00    



                   ZETA SURFACE  1  FOR LAYER   2
 READING ON UNIT  168 WITH FORMAT: (FREE)              

            1           2           3           4           5           6           7           8           9          10
           11          12          13          14          15          16          17          18          19          20
           21          22          23          24          25          26          27          28          29          30
           31          32          33          34          35          36          37          38          39          40
           41          42          43          44          45          46          47          48          49          50
           51          52
 ........................................................................................................................
   1   -80.00      -80.00      -80.00      -80.00      -80.00      -80.00      -80.00      -80.00      -80.00      -80.00    
       -80.00      -80.00      -80.00      -80.00      -80.00      -80.00      -80.00      -80.00      -80.00      -80.00    
       -80.00      -80.00      -80.00      -80.00      -80.00      -80.00      -80.00      -80.00      -80.00      -80.00    
       -80.00      -80.00      -80.00      -80.00      -80.00      -80.00      -80.00      -80.00      -80.00      -80.00    
       -80.00      -80.00      -80.00      -80.00      -80.00      -80.00      -80.00      -80.00      -80.00      -80.00    
       -80.00      -80.00    
   2   -80.00      -80.00      -80.00      -80.00      -80.00      -80.00      -80.00      -80.00      -80.00      -80.00    
       -80.00      -80.00      -80.00      -80.00      -80.00      -80.00      -80.00      -80.00      -80.00      -80.00    
       -80.00      -80.00      -80.00      -80.00      -80.00      -80.00      -80.00      -80.00      -80.00      -80.00    
       -80.00      -80.00      -80.00      -80.00      -80.00      -80.00      -80.00      -80.00      -80.00      -80.00    
       -80.00      -80.00      -80.00      -80.00      -80.00      -80.00      -80.00      -80.00      -80.00      -80.00    
       -80.00      -80.00    
   3   -80.00      -80.00      -80.00      -80.00      -80.00      -80.00      -80.00      -80.00      -80.00      -80.00    
       -80.00      -80.00      -80.00      -80.00      -80.00      -80.00      -80.00      -80.00      -80.00      -80.00    
       -80.00      -80.00      -80.00      -80.00      -80.00      -80.00      -80.00      -80.00      -80.00      -80.00    
       -80.00      -80.00      -80.00      -80.00      -80.00      -80.00      -80.00      -80.00      -80.00      -80.00    
       -80.00      -80.00      -80.00      -80.00      -80.00      -80.00      -80.00      -80.00      -80.00      -80.00    
       -80.00      -80.00    
   4   -80.00      -80.00      -80.00      -80.00      -80.00      -80.00      -80.00      -80.00      -80.00      -80.00    
       -80.00      -80.00      -80.00      -80.00      -80.00      -80.00      -80.00      -80.00      -80.00      -80.00    
       -80.00      -80.00      -80.00      -80.00      -80.00      -80.00      -80.00      -80.00      -80.00      -80.00    
       -80.00      -80.00      -80.00      -80.00      -80.00      -80.00      -80.00      -80.00      -80.00      -80.00    
       -80.00      -80.00      -80.00      -80.00      -80.00      -80.00      -80.00      -80.00      -80.00      -80.00    
       -80.00      -80.00    
   5   -80.00      -80.00      -80.00      -80.00      -80.00      -80.00      -80.00      -80.00      -80.00      -80.00    
       -80.00      -80.00      -80.00      -80.00      -80.00      -80.00      -80.00      -80.00      -80.00      -80.00    
       -80.00      -80.00      -80.00      -80.00      -80.00      -80.00      -80.00      -80.00      -80.00      -80.00    
       -80.00      -80.00      -80.00      -80.00      -80.00      -80.00      -80.00      -80.00      -80.00      -80.00    
       -80.00      -80.00      -80.00      -80.00      -80.00      -80.00      -80.00      -80.00      -80.00      -80.00    
       -80.00      -80.00    
   6    0.000       0.000       0.000       0.000      -80.00      -80.00      -80.00      -80.00      -80.00      -80.00    
       -80.00      -80.00      -80.00      -80.00      -80.00      -80.00      -80.00      -80.00      -80.00      -80.00    
       -80.00      -80.00      -80.00      -80.00      -80.00      -80.00      -80.00      -80.00      -80.00      -80.00    
       -80.00      -80.00      -80.00      -80.00      -80.00      -80.00      -80.00      -80.00      -80.00      -80.00    
       -80.00      -80.00      -80.00      -80.00      -80.00      -80.00      -80.00      -80.00      -80.00      -80.00    
       -80.00      -80.00    
   7    0.000       0.000       0.000       0.000      -80.00      -80.00      -80.00      -80.00      -80.00      -80.00    
       -80.00      -80.00      -80.00      -80.00      -80.00      -80.00      -80.00      -80.00      -80.00      -80.00    
       -80.00      -80.00      -80.00      -80.00      -80.00      -80.00      -80.00      -80.00      -80.00      -80.00    
       -80.00      -80.00      -80.00      -80.00      -80.00      -80.00      -80.00      -80.00      -80.00      -80.00    
       -80.00      -80.00      -80.00      -80.00      -80.00      -80.00      -80.00      -80.00      -80.00      -80.00    
       -80.00      -80.00    
   8    0.000       0.000       0.000       0.000      -80.00      -80.00      -80.00      -80.00      -80.00      -80.00    
       -80.00      -80.00      -80.00      -80.00      -80.00      -80.00      -80.00      -80.00      -80.00      -80.00    
       -80.00      -80.00      -80.00      -80.00      -80.00      -80.00      -80.00      -80.00      -80.00      -80.00    
       -80.00      -80.00      -80.00      -80.00      -80.00      -80.00      -80.00      -80.00      -80.00      -80.00    
       -80.00      -80.00      -80.00      -80.00      -80.00      -80.00      -80.00      -80.00      -80.00      -80.00    
       -80.00      -80.00    
   9    0.000       0.000       0.000       0.000      -80.00      -80.00      -80.00      -80.00      -80.00      -80.00    
       -80.00      -80.00      -80.00      -80.00      -80.00      -80.00      -80.00      -80.00      -80.00      -80.00    
       -80.00      -80.00      -80.00      -80.00      -80.00      -80.00      -80.00      -80.00      -80.00      -80.00    
       -80.00      -80.00      -80.00      -80.00      -80.00      -80.00      -80.00      -80.00      -80.00      -80.00    
       -80.00      -80.00      -80.00      -80.00      -80.00      -80.00      -80.00      -80.00      -80.00      -80.00    
       -80.00      -80.00    
  10   -80.00       0.000       0.000       0.000      -80.00      -80.00      -80.00      -80.00      -80.00      -80.00    
       -80.00      -80.00      -80.00      -80.00      -80.00      -80.00      -80.00      -80.00      -80.00      -80.00    
       -80.00      -80.00      -80.00      -80.00      -80.00      -80.00      -80.00      -80.00      -80.00      -80.00    
       -80.00      -80.00      -80.00      -80.00      -80.00      -80.00      -80.00      -80.00      -80.00      -80.00    
       -80.00      -80.00      -80.00      -80.00      -80.00      -80.00      -80.00      -80.00      -80.00      -80.00    
       -80.00      -80.00    
  11   -80.00       0.000       0.000       0.000      -80.00      -80.00      -80.00      -80.00      -80.00      -80.00    
       -80.00      -80.00      -80.00      -80.00      -80.00      -80.00      -80.00      -80.00      -80.00      -80.00    
       -80.00      -80.00      -80.00      -80.00      -80.00      -80.00      -80.00      -80.00      -80.00      -80.00    
       -80.00      -80.00      -80.00      -80.00      -80.00      -80.00      -80.00      -80.00      -80.00      -80.00    
       -80.00      -80.00      -80.00      -80.00      -80.00      -80.00      -80.00      -80.00      -80.00      -80.00    
       -80.00      -80.00    
  12   -80.00       0.000       0.000       0.000      -80.00      -80.00      -80.00      -80.00      -80.00      -80.00    
       -80.00      -80.00      -80.00      -80.00      -80.00      -80.00      -80.00      -80.00      -80.00      -80.00    
       -80.00      -80.00      -80.00      -80.00      -80.00      -80.00      -80.00      -80.00      -80.00      -80.00    
       -80.00      -80.00      -80.00      -80.00      -80.00      -80.00      -80.00      -80.00      -80.00      -80.00    
       -80.00      -80.00      -80.00      -80.00      -80.00      -80.00      -80.00      -80.00      -80.00      -80.00    
       -80.00      -80.00    
  13   -80.00       0.000       0.000       0.000      -80.00      -80.00      -80.00      -80.00      -80.00      -80.00    
       -80.00      -80.00      -80.00      -80.00      -80.00      -80.00      -80.00      -80.00      -80.00      -80.00    
       -80.00      -80.00      -80.00      -80.00      -80.00      -80.00      -80.00      -80.00      -80.00      -80.00    
       -80.00      -80.00      -80.00      -80.00      -80.00      -80.00      -80.00      -80.00      -80.00      -80.00    
       -80.00      -80.00      -80.00      -80.00      -80.00      -80.00      -80.00      -80.00      -80.00      -80.00    
       -80.00      -80.00    
  14   -80.00       0.000       0.000       0.000      -80.00      -80.00      -80.00      -80.00      -80.00      -80.00    
       -80.00      -80.00      -80.00      -80.00      -80.00      -80.00      -80.00      -80.00      -80.00      -80.00    
       -80.00      -80.00      -80.00      -80.00      -80.00      -80.00      -80.00      -80.00      -80.00      -80.00    
       -80.00      -80.00      -80.00      -80.00      -80.00      -80.00      -80.00      -80.00      -80.00      -80.00    
       -80.00      -80.00      -80.00      -80.00      -80.00      -80.00      -80.00      -80.00      -80.00      -80.00    
       -80.00      -80.00    
  15   -80.00       0.000       0.000       0.000       0.000      -80.00      -80.00      -80.00      -80.00      -80.00    
       -80.00      -80.00      -80.00      -80.00      -80.00      -80.00      -80.00      -80.00      -80.00      -80.00    
       -80.00      -80.00      -80.00      -80.00      -80.00      -80.00      -80.00      -80.00      -80.00      -80.00    
       -80.00      -80.00      -80.00      -80.00      -80.00      -80.00      -80.00      -80.00      -80.00      -80.00    
       -80.00      -80.00      -80.00      -80.00      -80.00      -80.00      -80.00      -80.00      -80.00      -80.00    
       -80.00      -80.00    
  16   -80.00       0.000       0.000       0.000       0.000      -80.00      -80.00      -80.00      -80.00      -80.00    
       -80.00      -80.00      -80.00      -80.00      -80.00      -80.00      -80.00      -80.00      -80.00      -80.00    
       -80.00      -80.00      -80.00      -80.00      -80.00      -80.00      -80.00      -80.00      -80.00      -80.00    
       -80.00      -80.00      -80.00      -80.00      -80.00      -80.00      -80.00      -80.00      -80.00      -80.00    
       -80.00      -80.00      -80.00      -80.00      -80.00      -80.00      -80.00      -80.00      -80.00      -80.00    
       -80.00      -80.00    
  17   -80.00       0.000       0.000       0.000       0.000      -80.00      -80.00      -80.00      -80.00      -80.00    
       -80.00      -80.00      -80.00      -80.00      -80.00      -80.00      -80.00      -80.00      -80.00      -80.00    
       -80.00      -80.00      -80.00      -80.00      -80.00      -80.00      -80.00      -80.00      -80.00      -80.00    
       -80.00      -80.00      -80.00      -80.00      -80.00      -80.00      -80.00      -80.00      -80.00      -80.00    
       -80.00      -80.00      -80.00      -80.00      -80.00      -80.00      -80.00      -80.00      -80.00      -80.00    
       -80.00      -80.00    
  18   -80.00       0.000       0.000       0.000       0.000      -80.00      -80.00      -80.00      -80.00      -80.00    
       -80.00      -80.00      -80.00      -80.00      -80.00      -80.00      -80.00      -80.00      -80.00      -80.00    
       -80.00      -80.00      -80.00      -80.00      -80.00      -80.00      -80.00      -80.00      -80.00      -80.00    
       -80.00      -80.00      -80.00      -80.00      -80.00      -80.00      -80.00      -80.00      -80.00      -80.00    
       -80.00      -80.00      -80.00      -80.00      -80.00      -80.00      -80.00      -80.00      -80.00      -80.00    
       -80.00      -80.00    
  19   -80.00       0.000       0.000       0.000       0.000      -80.00      -80.00      -80.00      -80.00      -80.00    
       -80.00      -80.00      -80.00      -80.00      -80.00      -80.00      -80.00      -80.00      -80.00      -80.00    
       -80.00      -80.00      -80.00      -80.00      -80.00      -80.00      -80.00      -80.00      -80.00      -80.00    
       -80.00      -80.00      -80.00      -80.00      -80.00      -80.00      -80.00      -80.00      -80.00      -80.00    
       -80.00      -80.00      -80.00      -80.00      -80.00      -80.00      -80.00      -80.00      -80.00      -80.00    
       -80.00      -80.00    
  20   -80.00       0.000       0.000       0.000       0.000      -80.00      -80.00      -80.00      -80.00      -80.00    
       -80.00      -80.00      -80.00      -80.00      -80.00      -80.00      -80.00      -80.00      -80.00      -80.00    
       -80.00      -80.00      -80.00      -80.00      -80.00      -80.00      -80.00      -80.00      -80.00      -80.00    
       -80.00      -80.00      -80.00      -80.00      -80.00      -80.00      -80.00      -80.00      -80.00      -80.00    
       -80.00      -80.00      -80.00      -80.00      -80.00      -80.00      -80.00      -80.00      -80.00      -80.00    
       -80.00      -80.00    
  21   -80.00       0.000       0.000       0.000       0.000      -80.00      -80.00      -80.00      -80.00      -80.00    
       -80.00      -80.00      -80.00      -80.00      -80.00      -80.00      -80.00      -80.00      -80.00      -80.00    
       -80.00      -80.00      -80.00      -80.00      -80.00      -80.00      -80.00      -80.00      -80.00      -80.00    
       -80.00      -80.00      -80.00      -80.00      -80.00      -80.00      -80.00      -80.00      -80.00      -80.00    
       -80.00      -80.00      -80.00      -80.00      -80.00      -80.00      -80.00      -80.00      -80.00      -80.00    
       -80.00      -80.00    
  22   -80.00       0.000       0.000       0.000       0.000      -80.00      -80.00      -80.00      -80.00      -80.00    
       -80.00      -80.00      -80.00      -80.00      -80.00      -80.00      -80.00      -80.00      -80.00      -80.00    
       -80.00      -80.00      -80.00      -80.00      -80.00      -80.00      -80.00      -80.00      -80.00      -80.00    
       -80.00      -80.00      -80.00      -80.00      -80.00      -80.00      -80.00      -80.00      -80.00      -80.00    
       -80.00      -80.00      -80.00      -80.00      -80.00      -80.00      -80.00      -80.00      -80.00      -80.00    
       -80.00      -80.00    
  23   -80.00       0.000       0.000       0.000       0.000       0.000      -80.00      -80.00      -80.00      -80.00    
       -80.00      -80.00      -80.00      -80.00      -80.00      -80.00      -80.00      -80.00      -80.00      -80.00    
       -80.00      -80.00      -80.00      -80.00      -80.00      -80.00      -80.00      -80.00      -80.00      -80.00    
       -80.00      -80.00      -80.00      -80.00      -80.00      -80.00      -80.00      -80.00      -80.00      -80.00    
       -80.00      -80.00      -80.00      -80.00      -80.00      -80.00      -80.00      -80.00      -80.00      -80.00    
       -80.00      -80.00    
  24   -80.00      -80.00       0.000       0.000       0.000       0.000      -80.00      -80.00      -80.00      -80.00    
       -80.00      -80.00      -80.00      -80.00      -80.00      -80.00      -80.00      -80.00      -80.00      -80.00    
       -80.00      -80.00      -80.00      -80.00      -80.00      -80.00      -80.00      -80.00      -80.00      -80.00    
       -80.00      -80.00      -80.00      -80.00      -80.00      -80.00      -80.00      -80.00      -80.00      -80.00    
       -80.00      -80.00      -80.00      -80.00      -80.00      -80.00      -80.00      -80.00      -80.00      -80.00    
       -80.00      -80.00    
  25   -80.00      -80.00       0.000       0.000       0.000       0.000      -80.00      -80.00      -80.00      -80.00    
       -80.00      -80.00      -80.00      -80.00      -80.00      -80.00      -80.00      -80.00      -80.00      -80.00    
       -80.00      -80.00      -80.00      -80.00      -80.00      -80.00      -80.00      -80.00      -80.00      -80.00    
       -80.00      -80.00      -80.00      -80.00      -80.00      -80.00      -80.00      -80.00      -80.00      -80.00    
       -80.00      -80.00      -80.00      -80.00      -80.00      -80.00      -80.00      -80.00      -80.00      -80.00    
       -80.00      -80.00    
  26   -80.00      -80.00       0.000       0.000       0.000       0.000      -80.00      -80.00      -80.00      -80.00    
       -80.00      -80.00      -80.00      -80.00      -80.00      -80.00      -80.00      -80.00      -80.00      -80.00    
       -80.00      -80.00      -80.00      -80.00      -80.00      -80.00      -80.00      -80.00      -80.00      -80.00    
       -80.00      -80.00      -80.00      -80.00      -80.00      -80.00      -80.00      -80.00      -80.00      -80.00    
       -80.00      -80.00      -80.00      -80.00      -80.00      -80.00      -80.00      -80.00      -80.00      -80.00    
       -80.00      -80.00    
  27   -80.00      -80.00       0.000       0.000       0.000       0.000      -80.00      -80.00      -80.00      -80.00    
       -80.00      -80.00      -80.00      -80.00      -80.00      -80.00      -80.00      -80.00      -80.00      -80.00    
       -80.00      -80.00      -80.00      -80.00      -80.00      -80.00      -80.00      -80.00      -80.00      -80.00    
       -80.00      -80.00      -80.00      -80.00      -80.00      -80.00      -80.00      -80.00      -80.00      -80.00    
       -80.00      -80.00      -80.00      -80.00      -80.00      -80.00      -80.00      -80.00      -80.00      -80.00    
       -80.00      -80.00    
  28   -80.00      -80.00       0.000       0.000       0.000       0.000      -80.00      -80.00      -80.00      -80.00    
       -80.00      -80.00      -80.00      -80.00      -80.00      -80.00      -80.00      -80.00      -80.00      -80.00    
       -80.00      -80.00      -80.00      -80.00      -80.00      -80.00      -80.00      -80.00      -80.00      -80.00    
       -80.00      -80.00      -80.00      -80.00      -80.00      -80.00      -80.00      -80.00      -80.00      -80.00    
       -80.00      -80.00      -80.00      -80.00      -80.00      -80.00      -80.00      -80.00      -80.00      -80.00    
       -80.00      -80.00    
  29   -80.00      -80.00       0.000       0.000       0.000       0.000      -80.00      -80.00      -80.00      -80.00    
       -80.00      -80.00      -80.00      -80.00      -80.00      -80.00      -80.00      -80.00      -80.00      -80.00    
       -80.00      -80.00      -80.00      -80.00      -80.00      -80.00      -80.00      -80.00      -80.00      -80.00    
       -80.00      -80.00      -80.00      -80.00      -80.00      -80.00      -80.00      -80.00      -80.00      -80.00    
       -80.00      -80.00      -80.00      -80.00      -80.00      -80.00      -80.00      -80.00      -80.00      -80.00    
       -80.00      -80.00    
  30   -80.00      -80.00       0.000       0.000       0.000       0.000      -80.00      -80.00      -80.00      -80.00    
       -80.00      -80.00      -80.00      -80.00      -80.00      -80.00      -80.00      -80.00      -80.00      -80.00    
       -80.00      -80.00      -80.00      -80.00      -80.00      -80.00      -80.00      -80.00      -80.00      -80.00    
       -80.00      -80.00      -80.00      -80.00      -80.00      -80.00      -80.00      -80.00      -80.00      -80.00    
       -80.00      -80.00      -80.00      -80.00      -80.00      -80.00      -80.00      -80.00      -80.00      -80.00    
       -80.00      -80.00    
  31   -80.00      -80.00       0.000       0.000       0.000       0.000      -80.00      -80.00      -80.00      -80.00    
       -80.00      -80.00      -80.00      -80.00      -80.00      -80.00      -80.00      -80.00      -80.00      -80.00    
       -80.00      -80.00      -80.00      -80.00      -80.00      -80.00      -80.00      -80.00      -80.00      -80.00    
       -80.00      -80.00      -80.00      -80.00      -80.00      -80.00      -80.00      -80.00      -80.00      -80.00    
       -80.00      -80.00      -80.00      -80.00      -80.00      -80.00      -80.00      -80.00      -80.00      -80.00    
       -80.00      -80.00    
  32   -80.00      -80.00       0.000       0.000       0.000      -80.00      -80.00      -80.00      -80.00      -80.00    
       -80.00      -80.00      -80.00      -80.00      -80.00      -80.00      -80.00      -80.00      -80.00      -80.00    
       -80.00      -80.00      -80.00      -80.00      -80.00      -80.00      -80.00      -80.00      -80.00      -80.00    
       -80.00      -80.00      -80.00      -80.00      -80.00      -80.00      -80.00      -80.00      -80.00      -80.00    
       -80.00      -80.00      -80.00      -80.00      -80.00      -80.00      -80.00      -80.00      -80.00      -80.00    
       -80.00      -80.00    
  33   -80.00      -80.00       0.000       0.000       0.000      -80.00      -80.00      -80.00      -80.00      -80.00    
       -80.00      -80.00      -80.00      -80.00      -80.00      -80.00      -80.00      -80.00      -80.00      -80.00    
       -80.00      -80.00      -80.00      -80.00      -80.00      -80.00      -80.00      -80.00      -80.00      -80.00    
       -80.00      -80.00      -80.00      -80.00      -80.00      -80.00      -80.00      -80.00      -80.00      -80.00    
       -80.00      -80.00      -80.00      -80.00      -80.00      -80.00      -80.00      -80.00      -80.00      -80.00    
       -80.00      -80.00    
  34   -80.00      -80.00       0.000       0.000       0.000      -80.00      -80.00      -80.00      -80.00      -80.00    
       -80.00      -80.00      -80.00      -80.00      -80.00      -80.00      -80.00      -80.00      -80.00      -80.00    
       -80.00      -80.00      -80.00      -80.00      -80.00      -80.00      -80.00      -80.00      -80.00      -80.00    
       -80.00      -80.00      -80.00      -80.00      -80.00      -80.00      -80.00      -80.00      -80.00      -80.00    
       -80.00      -80.00      -80.00      -80.00      -80.00      -80.00      -80.00      -80.00      -80.00      -80.00    
       -80.00      -80.00    
  35   -80.00      -80.00      -80.00      -80.00      -80.00      -80.00      -80.00      -80.00      -80.00      -80.00    
       -80.00      -80.00      -80.00      -80.00      -80.00      -80.00      -80.00      -80.00      -80.00      -80.00    
       -80.00      -80.00      -80.00      -80.00      -80.00      -80.00      -80.00      -80.00      -80.00      -80.00    
       -80.00      -80.00      -80.00      -80.00      -80.00      -80.00      -80.00      -80.00      -80.00      -80.00    
       -80.00      -80.00      -80.00      -80.00      -80.00      -80.00      -80.00      -80.00      -80.00      -80.00    
       -80.00      -80.00    
  36   -80.00      -80.00      -80.00      -80.00      -80.00      -80.00      -80.00      -80.00      -80.00      -80.00    
       -80.00      -80.00      -80.00      -80.00      -80.00      -80.00      -80.00      -80.00      -80.00      -80.00    
       -80.00      -80.00      -80.00      -80.00      -80.00      -80.00      -80.00      -80.00      -80.00      -80.00    
       -80.00      -80.00      -80.00      -80.00      -80.00      -80.00      -80.00      -80.00      -80.00      -80.00    
       -80.00      -80.00      -80.00      -80.00      -80.00      -80.00      -80.00      -80.00      -80.00      -80.00    
       -80.00      -80.00    
  37   -80.00      -80.00      -80.00      -80.00      -80.00      -80.00      -80.00      -80.00      -80.00      -80.00    
       -80.00      -80.00      -80.00      -80.00      -80.00      -80.00      -80.00      -80.00      -80.00      -80.00    
       -80.00      -80.00      -80.00      -80.00      -80.00      -80.00      -80.00      -80.00      -80.00      -80.00    
       -80.00      -80.00      -80.00      -80.00      -80.00      -80.00      -80.00      -80.00      -80.00      -80.00    
       -80.00      -80.00      -80.00      -80.00      -80.00      -80.00      -80.00      -80.00      -80.00      -80.00    
       -80.00      -80.00    
  38   -80.00      -80.00      -80.00      -80.00      -80.00      -80.00      -80.00      -80.00      -80.00      -80.00    
       -80.00      -80.00      -80.00      -80.00      -80.00      -80.00      -80.00      -80.00      -80.00      -80.00    
       -80.00      -80.00      -80.00      -80.00      -80.00      -80.00      -80.00      -80.00      -80.00      -80.00    
       -80.00      -80.00      -80.00      -80.00      -80.00      -80.00      -80.00      -80.00      -80.00      -80.00    
       -80.00      -80.00      -80.00      -80.00      -80.00      -80.00      -80.00      -80.00      -80.00      -80.00    
       -80.00      -80.00    
  39   -80.00      -80.00      -80.00      -80.00      -80.00      -80.00      -80.00      -80.00      -80.00      -80.00    
       -80.00      -80.00      -80.00      -80.00      -80.00      -80.00      -80.00      -80.00      -80.00      -80.00    
       -80.00      -80.00      -80.00      -80.00      -80.00      -80.00      -80.00      -80.00      -80.00      -80.00    
       -80.00      -80.00      -80.00      -80.00      -80.00      -80.00      -80.00      -80.00      -80.00      -80.00    
       -80.00      -80.00      -80.00      -80.00      -80.00      -80.00      -80.00      -80.00      -80.00      -80.00    
       -80.00      -80.00    
  40   -80.00      -80.00      -80.00      -80.00      -80.00      -80.00      -80.00      -80.00      -80.00      -80.00    
       -80.00      -80.00      -80.00      -80.00      -80.00      -80.00      -80.00      -80.00      -80.00      -80.00    
       -80.00      -80.00      -80.00      -80.00      -80.00      -80.00      -80.00      -80.00      -80.00      -80.00    
       -80.00      -80.00      -80.00      -80.00      -80.00      -80.00      -80.00      -80.00      -80.00      -80.00    
       -80.00      -80.00      -80.00      -80.00      -80.00      -80.00      -80.00      -80.00      -80.00      -80.00    
       -80.00      -80.00    
  41   -80.00      -80.00      -80.00      -80.00      -80.00      -80.00      -80.00      -80.00      -80.00      -80.00    
       -80.00      -80.00      -80.00      -80.00      -80.00      -80.00      -80.00      -80.00      -80.00      -80.00    
       -80.00      -80.00      -80.00      -80.00      -80.00      -80.00      -80.00      -80.00      -80.00      -80.00    
       -80.00      -80.00      -80.00      -80.00      -80.00      -80.00      -80.00      -80.00      -80.00      -80.00    
       -80.00      -80.00      -80.00      -80.00      -80.00      -80.00      -80.00      -80.00      -80.00      -80.00    
       -80.00      -80.00    
  42   -80.00      -80.00      -80.00      -80.00      -80.00      -80.00      -80.00      -80.00      -80.00      -80.00    
       -80.00      -80.00      -80.00      -80.00      -80.00      -80.00      -80.00      -80.00      -80.00      -80.00    
       -80.00      -80.00      -80.00      -80.00      -80.00      -80.00      -80.00      -80.00      -80.00      -80.00    
       -80.00      -80.00      -80.00      -80.00      -80.00      -80.00      -80.00      -80.00      -80.00      -80.00    
       -80.00      -80.00      -80.00      -80.00      -80.00      -80.00      -80.00      -80.00      -80.00      -80.00    
       -80.00      -80.00    
  43   -80.00      -80.00      -80.00      -80.00      -80.00      -80.00      -80.00      -80.00      -80.00      -80.00    
       -80.00      -80.00      -80.00      -80.00      -80.00      -80.00      -80.00      -80.00      -80.00      -80.00    
       -80.00      -80.00      -80.00      -80.00      -80.00      -80.00      -80.00      -80.00      -80.00      -80.00    
       -80.00      -80.00      -80.00      -80.00      -80.00      -80.00      -80.00      -80.00      -80.00      -80.00    
       -80.00      -80.00      -80.00      -80.00      -80.00      -80.00      -80.00      -80.00      -80.00      -80.00    
       -80.00      -80.00    
  44   -80.00      -80.00      -80.00      -80.00      -80.00      -80.00      -80.00      -80.00      -80.00      -80.00    
       -80.00      -80.00      -80.00      -80.00      -80.00      -80.00      -80.00      -80.00      -80.00      -80.00    
       -80.00      -80.00      -80.00      -80.00      -80.00      -80.00      -80.00      -80.00      -80.00      -80.00    
       -80.00      -80.00      -80.00      -80.00      -80.00      -80.00      -80.00      -80.00      -80.00      -80.00    
       -80.00      -80.00      -80.00      -80.00      -80.00      -80.00      -80.00      -80.00      -80.00      -80.00    
       -80.00      -80.00    
  45   -80.00      -80.00      -80.00      -80.00      -80.00      -80.00      -80.00      -80.00      -80.00      -80.00    
       -80.00      -80.00      -80.00      -80.00      -80.00      -80.00      -80.00      -80.00      -80.00      -80.00    
       -80.00      -80.00      -80.00      -80.00      -80.00      -80.00      -80.00      -80.00      -80.00      -80.00    
       -80.00      -80.00      -80.00      -80.00      -80.00      -80.00      -80.00      -80.00      -80.00      -80.00    
       -80.00      -80.00      -80.00      -80.00      -80.00      -80.00      -80.00      -80.00      -80.00      -80.00    
       -80.00      -80.00    
  46   -80.00      -80.00      -80.00      -80.00      -80.00      -80.00      -80.00      -80.00      -80.00      -80.00    
       -80.00      -80.00      -80.00      -80.00      -80.00      -80.00      -80.00      -80.00      -80.00      -80.00    
       -80.00      -80.00      -80.00      -80.00      -80.00      -80.00      -80.00      -80.00      -80.00      -80.00    
       -80.00      -80.00      -80.00      -80.00      -80.00      -80.00      -80.00      -80.00      -80.00      -80.00    
       -80.00      -80.00      -80.00      -80.00      -80.00      -80.00      -80.00      -80.00      -80.00      -80.00    
       -80.00      -80.00    
  47   -80.00      -80.00      -80.00      -80.00      -80.00      -80.00      -80.00      -80.00      -80.00      -80.00    
       -80.00      -80.00      -80.00      -80.00      -80.00      -80.00      -80.00      -80.00      -80.00      -80.00    
       -80.00      -80.00      -80.00      -80.00      -80.00      -80.00      -80.00      -80.00      -80.00      -80.00    
       -80.00      -80.00      -80.00      -80.00      -80.00      -80.00      -80.00      -80.00      -80.00      -80.00    
       -80.00      -80.00      -80.00      -80.00      -80.00      -80.00      -80.00      -80.00      -80.00      -80.00    
       -80.00      -80.00    
  48   -80.00      -80.00      -80.00      -80.00      -80.00      -80.00      -80.00      -80.00      -80.00      -80.00    
       -80.00      -80.00      -80.00      -80.00      -80.00      -80.00      -80.00      -80.00      -80.00      -80.00    
       -80.00      -80.00      -80.00      -80.00      -80.00      -80.00      -80.00      -80.00      -80.00      -80.00    
       -80.00      -80.00      -80.00      -80.00      -80.00      -80.00      -80.00      -80.00      -80.00      -80.00    
       -80.00      -80.00      -80.00      -80.00      -80.00      -80.00      -80.00      -80.00      -80.00      -80.00    
       -80.00      -80.00    
  49   -80.00      -80.00      -80.00      -80.00      -80.00      -80.00      -80.00      -80.00      -80.00      -80.00    
       -80.00      -80.00      -80.00      -80.00      -80.00      -80.00      -80.00      -80.00      -80.00      -80.00    
       -80.00      -80.00      -80.00      -80.00      -80.00      -80.00      -80.00      -80.00      -80.00      -80.00    
       -80.00      -80.00      -80.00      -80.00      -80.00      -80.00      -80.00      -80.00      -80.00      -80.00    
       -80.00      -80.00      -80.00      -80.00      -80.00      -80.00      -80.00      -80.00      -80.00      -80.00    
       -80.00      -80.00    
  50   -80.00      -80.00      -80.00      -80.00      -80.00      -80.00      -80.00      -80.00      -80.00      -80.00    
       -80.00      -80.00      -80.00      -80.00      -80.00      -80.00      -80.00      -80.00      -80.00      -80.00    
       -80.00      -80.00      -80.00      -80.00      -80.00      -80.00      -80.00      -80.00      -80.00      -80.00    
       -80.00      -80.00      -80.00      -80.00      -80.00      -80.00      -80.00      -80.00      -80.00      -80.00    
       -80.00      -80.00      -80.00      -80.00      -80.00      -80.00      -80.00      -80.00      -80.00      -80.00    
       -80.00      -80.00    
  51   -80.00      -80.00      -80.00      -80.00      -80.00      -80.00      -80.00      -80.00      -80.00      -80.00    
       -80.00      -80.00      -80.00      -80.00      -80.00      -80.00      -80.00      -80.00      -80.00      -80.00    
       -80.00      -80.00      -80.00      -80.00      -80.00      -80.00      -80.00      -80.00      -80.00      -80.00    
       -80.00      -80.00      -80.00      -80.00      -80.00      -80.00      -80.00      -80.00      -80.00      -80.00    
       -80.00      -80.00      -80.00      -80.00      -80.00      -80.00      -80.00      -80.00      -80.00      -80.00    
       -80.00      -80.00    
  52   -80.00      -80.00      -80.00      -80.00      -80.00      -80.00      -80.00      -80.00      -80.00      -80.00    
       -80.00      -80.00      -80.00      -80.00      -80.00      -80.00      -80.00      -80.00      -80.00      -80.00    
       -80.00      -80.00      -80.00      -80.00      -80.00      -80.00      -80.00      -80.00      -80.00      -80.00    
       -80.00      -80.00      -80.00      -80.00      -80.00      -80.00      -80.00      -80.00      -80.00      -80.00    
       -80.00      -80.00      -80.00      -80.00      -80.00      -80.00      -80.00      -80.00      -80.00      -80.00    
       -80.00      -80.00    
  53   -80.00      -80.00      -80.00      -80.00      -80.00      -80.00      -80.00      -80.00      -80.00      -80.00    
       -80.00      -80.00      -80.00      -80.00      -80.00      -80.00      -80.00      -80.00      -80.00      -80.00    
       -80.00      -80.00      -80.00      -80.00      -80.00      -80.00      -80.00      -80.00      -80.00      -80.00    
       -80.00      -80.00      -80.00      -80.00      -80.00      -80.00      -80.00      -80.00      -80.00      -80.00    
       -80.00      -80.00      -80.00      -80.00      -80.00      -80.00      -80.00      -80.00      -80.00      -80.00    
       -80.00      -80.00    
  54   -80.00      -80.00      -80.00      -80.00      -80.00      -80.00      -80.00      -80.00      -80.00      -80.00    
       -80.00      -80.00      -80.00      -80.00      -80.00      -80.00      -80.00      -80.00      -80.00      -80.00    
       -80.00      -80.00      -80.00      -80.00      -80.00      -80.00      -80.00      -80.00      -80.00      -80.00    
       -80.00      -80.00      -80.00      -80.00      -80.00      -80.00      -80.00      -80.00      -80.00      -80.00    
       -80.00      -80.00      -80.00      -80.00      -80.00      -80.00      -80.00      -80.00      -80.00      -80.00    
       -80.00      -80.00    
  55   -80.00      -80.00      -80.00      -80.00      -80.00      -80.00      -80.00      -80.00      -80.00      -80.00    
       -80.00      -80.00      -80.00      -80.00      -80.00      -80.00      -80.00      -80.00      -80.00      -80.00    
       -80.00      -80.00      -80.00      -80.00      -80.00      -80.00      -80.00      -80.00      -80.00      -80.00    
       -80.00      -80.00      -80.00      -80.00      -80.00      -80.00      -80.00      -80.00      -80.00      -80.00    
       -80.00      -80.00      -80.00      -80.00      -80.00      -80.00      -80.00      -80.00      -80.00      -80.00    
       -80.00      -80.00    
  56   -80.00      -80.00      -80.00      -80.00      -80.00      -80.00      -80.00      -80.00      -80.00      -80.00    
       -80.00      -80.00      -80.00      -80.00      -80.00      -80.00      -80.00      -80.00      -80.00      -80.00    
       -80.00      -80.00      -80.00      -80.00      -80.00      -80.00      -80.00      -80.00      -80.00      -80.00    
       -80.00      -80.00      -80.00      -80.00      -80.00      -80.00      -80.00      -80.00      -80.00      -80.00    
       -80.00      -80.00      -80.00      -80.00      -80.00      -80.00      -80.00      -80.00      -80.00      -80.00    
       -80.00      -80.00    
  57   -80.00      -80.00      -80.00      -80.00      -80.00      -80.00      -80.00      -80.00      -80.00      -80.00    
       -80.00      -80.00      -80.00      -80.00      -80.00      -80.00      -80.00      -80.00      -80.00      -80.00    
       -80.00      -80.00      -80.00      -80.00      -80.00      -80.00      -80.00      -80.00      -80.00      -80.00    
       -80.00      -80.00      -80.00      -80.00      -80.00      -80.00      -80.00      -80.00      -80.00      -80.00    
       -80.00      -80.00      -80.00      -80.00      -80.00      -80.00      -80.00      -80.00      -80.00      -80.00    
       -80.00      -80.00    
  58   -80.00      -80.00      -80.00      -80.00      -80.00      -80.00      -80.00      -80.00      -80.00      -80.00    
       -80.00      -80.00      -80.00      -80.00      -80.00      -80.00      -80.00      -80.00      -80.00      -80.00    
       -80.00      -80.00      -80.00      -80.00      -80.00      -80.00      -80.00      -80.00      -80.00      -80.00    
       -80.00      -80.00      -80.00      -80.00      -80.00      -80.00      -80.00      -80.00      -80.00      -80.00    
       -80.00      -80.00      -80.00      -80.00      -80.00      -80.00      -80.00      -80.00      -80.00      -80.00    
       -80.00      -80.00    
  59   -80.00      -80.00      -80.00      -80.00      -80.00      -80.00      -80.00      -80.00      -80.00      -80.00    
       -80.00      -80.00      -80.00      -80.00      -80.00      -80.00      -80.00      -80.00      -80.00      -80.00    
       -80.00      -80.00      -80.00      -80.00      -80.00      -80.00      -80.00      -80.00      -80.00      -80.00    
       -80.00      -80.00      -80.00      -80.00      -80.00      -80.00      -80.00      -80.00      -80.00      -80.00    
       -80.00      -80.00      -80.00      -80.00      -80.00      -80.00      -80.00      -80.00      -80.00      -80.00    
       -80.00      -80.00    
  60   -80.00      -80.00      -80.00      -80.00      -80.00      -80.00      -80.00      -80.00      -80.00      -80.00    
       -80.00      -80.00      -80.00      -80.00      -80.00      -80.00      -80.00      -80.00      -80.00      -80.00    
       -80.00      -80.00      -80.00      -80.00      -80.00      -80.00      -80.00      -80.00      -80.00      -80.00    
       -80.00      -80.00      -80.00      -80.00      -80.00      -80.00      -80.00      -80.00      -80.00      -80.00    
       -80.00      -80.00      -80.00      -80.00      -80.00      -80.00      -80.00      -80.00      -80.00      -80.00    
       -80.00      -80.00    
  61   -80.00      -80.00      -80.00      -80.00      -80.00      -80.00      -80.00      -80.00      -80.00      -80.00    
       -80.00      -80.00      -80.00      -80.00      -80.00      -80.00      -80.00      -80.00      -80.00      -80.00    
       -80.00      -80.00      -80.00      -80.00      -80.00      -80.00      -80.00      -80.00      -80.00      -80.00    
       -80.00      -80.00      -80.00      -80.00      -80.00      -80.00      -80.00      -80.00      -80.00      -80.00    
       -80.00      -80.00      -80.00      -80.00      -80.00      -80.00      -80.00      -80.00      -80.00      -80.00    
       -80.00      -80.00    
  62   -80.00      -80.00      -80.00      -80.00      -80.00      -80.00      -80.00      -80.00      -80.00      -80.00    
       -80.00      -80.00      -80.00      -80.00      -80.00      -80.00      -80.00      -80.00      -80.00      -80.00    
       -80.00      -80.00      -80.00      -80.00      -80.00      -80.00      -80.00      -80.00      -80.00      -80.00    
       -80.00      -80.00      -80.00      -80.00      -80.00      -80.00      -80.00      -80.00      -80.00      -80.00    
       -80.00      -80.00      -80.00      -80.00      -80.00      -80.00      -80.00      -80.00      -80.00      -80.00    
       -80.00      -80.00    
  63   -80.00      -80.00      -80.00      -80.00      -80.00      -80.00      -80.00      -80.00      -80.00      -80.00    
       -80.00      -80.00      -80.00      -80.00      -80.00      -80.00      -80.00      -80.00      -80.00      -80.00    
       -80.00      -80.00      -80.00      -80.00      -80.00      -80.00      -80.00      -80.00      -80.00      -80.00    
       -80.00      -80.00      -80.00      -80.00      -80.00      -80.00      -80.00      -80.00      -80.00      -80.00    
       -80.00      -80.00      -80.00      -80.00      -80.00      -80.00      -80.00      -80.00      -80.00      -80.00    
       -80.00      -80.00    
  64   -80.00      -80.00      -80.00      -80.00      -80.00      -80.00      -80.00      -80.00      -80.00      -80.00    
       -80.00      -80.00      -80.00      -80.00      -80.00      -80.00      -80.00      -80.00      -80.00      -80.00    
       -80.00      -80.00      -80.00      -80.00      -80.00      -80.00      -80.00      -80.00      -80.00      -80.00    
       -80.00      -80.00      -80.00      -80.00      -80.00      -80.00      -80.00      -80.00      -80.00      -80.00    
       -80.00      -80.00      -80.00      -80.00      -80.00      -80.00      -80.00      -80.00      -80.00      -80.00    
       -80.00      -80.00    
  65   -80.00      -80.00      -80.00      -80.00      -80.00      -80.00      -80.00      -80.00      -80.00      -80.00    
       -80.00      -80.00      -80.00      -80.00      -80.00      -80.00      -80.00      -80.00      -80.00      -80.00    
       -80.00      -80.00      -80.00      -80.00      -80.00      -80.00      -80.00      -80.00      -80.00      -80.00    
       -80.00      -80.00      -80.00      -80.00      -80.00      -80.00      -80.00      -80.00      -80.00      -80.00    
       -80.00      -80.00      -80.00      -80.00      -80.00      -80.00      -80.00      -80.00      -80.00      -80.00    
       -80.00      -80.00    
  66   -80.00      -80.00      -80.00      -80.00      -80.00      -80.00      -80.00      -80.00      -80.00      -80.00    
       -80.00      -80.00      -80.00      -80.00      -80.00      -80.00      -80.00      -80.00      -80.00      -80.00    
       -80.00      -80.00      -80.00      -80.00      -80.00      -80.00      -80.00      -80.00      -80.00      -80.00    
       -80.00      -80.00      -80.00      -80.00      -80.00      -80.00      -80.00      -80.00      -80.00      -80.00    
       -80.00      -80.00      -80.00      -80.00      -80.00      -80.00      -80.00      -80.00      -80.00      -80.00    
       -80.00      -80.00    
  67   -80.00      -80.00      -80.00      -80.00      -80.00      -80.00      -80.00      -80.00      -80.00      -80.00    
       -80.00      -80.00      -80.00      -80.00      -80.00      -80.00      -80.00      -80.00      -80.00      -80.00    
       -80.00      -80.00      -80.00      -80.00      -80.00      -80.00      -80.00      -80.00      -80.00      -80.00    
       -80.00      -80.00      -80.00      -80.00      -80.00      -80.00      -80.00      -80.00      -80.00      -80.00    
       -80.00      -80.00      -80.00      -80.00      -80.00      -80.00      -80.00      -80.00      -80.00      -80.00    
       -80.00      -80.00    
  68   -80.00      -80.00      -80.00      -80.00      -80.00      -80.00      -80.00      -80.00      -80.00      -80.00    
       -80.00      -80.00      -80.00      -80.00      -80.00      -80.00      -80.00      -80.00      -80.00      -80.00    
       -80.00      -80.00      -80.00      -80.00      -80.00      -80.00      -80.00      -80.00      -80.00      -80.00    
       -80.00      -80.00      -80.00      -80.00      -80.00      -80.00      -80.00      -80.00      -80.00      -80.00    
       -80.00      -80.00      -80.00      -80.00      -80.00      -80.00      -80.00      -80.00      -80.00      -80.00    
       -80.00      -80.00    

                      SSZ =  1.000000E-01 FOR LAYER   1

                      SSZ =  1.000000E-01 FOR LAYER   2



                            IZONENR FOR LAYER   1
 READING ON UNIT  168 WITH FORMAT: (FREE)              

          1     2     3     4     5     6     7     8     9    10    11    12    13    14    15    16    17    18    19    20
         21    22    23    24    25    26    27    28    29    30    31    32    33    34    35    36    37    38    39    40
         41    42    43    44    45    46    47    48    49    50    51    52
 ............................................................................................................................
   1      0     0     0     0     0     0     0     0     0     0     0     0     0     0     0     0     0     0     0     0
          0     0     0     0     0     0     0     0     0     0     0     0     0     0     0     0     0     0     0     0
          0     0     0     0     0     0     0     0     0     0     0     0
   2      0     0     0     0     0     0     0     0     0     0     0     0     0     0     0     0     0     0     0     0
          0     0     0     0     0     0     0     0     0     0     0     0     0     0     0     0     0     0     0     0
          0     0     0     0     0     0     0     0     0     0     0     0
   3      0     0     0     0     0     0     0     0     0     0     0     0     0     0     0     0     0     0     0     0
          0     0     0     0     0     0     0     0     0     0     0     0     0     0     0     0     0     0     0     0
          0     0     0     0     0     0     0     0     0     0     0     0
   4      0     0     0     0     0     0     0     0     0     0     0     0     0     0     0     0     0     0     0     0
          0     0     0     0     0     0     0     0     0     0     0     0     0     0     0     0     0     0     0     0
          0     0     0     0     0     0     0     0     0     0     0     0
   5      0     0     0     0     0     0     0     0     0     0     0     0     0     0     0     0     0     0     0     0
          0     0     0     0     0     0     0     0     0     0     0     0     0     0     0     0     0     0     0     0
          0     0     0     0     0     0     0     0     0     0     0     0
   6     -2    -2    -2    -2     0     0     0     0     0     0     0     0     0     0     0     0     0     0     0     0
          0     0     0     0     0     0     0     0     0     0     0     0     0     0     0     0     0     0     0     0
          0     0     0     0     0     0     0     0     0     0     0     0
   7     -2    -2    -2    -2     0     0     0     0     0     0     0     0     0     0     0     0     0     0     0     0
          0     0     0     0     0     0     0     0     0     0     0     0     0     0     0     0     0     0     0     0
          0     0     0     0     0     0     0     0     0     0     0     0
   8     -2    -2    -2    -2     0     0     0     0     0     0     0     0     0     0     0     0     0     0     0     0
          0     0     0     0     0     0     0     0     0     0     0     0     0     0     0     0     0     0     0     0
          0     0     0     0     0     0     0     0     0     0     0     0
   9     -2    -2    -2    -2     0     0     0     0     0     0     0     0     0     0     0     0     0     0     0     0
          0     0     0     0     0     0     0     0     0     0     0     0     0     0     0     0     0     0     0     0
          0     0     0     0     0     0     0     0     0     0     0     0
  10      0    -2    -2    -2     0     0     0     0     0     0     0     0     0     0     0     0     0     0     0     0
          0     0     0     0     0     0     0     0     0     0     0     0     0     0     0     0     0     0     0     0
          0     0     0     0     0     0     0     0     0     0     0     0
  11      0    -2    -2    -2     0     0     0     0     0     0     0     0     0     0     0     0     0     0     0     0
          0     0     0     0     0     0     0     0     0     0     0     0     0     0     0     0     0     0     0     0
          0     0     0     0     0     0     0     0     0     0     0     0
  12      0    -2    -2    -2     0     0     0     0     0     0     0     0     0     0     0     0     0     0     0     0
          0     0     0     0     0     0     0     0     0     0     0     0     0     0     0     0     0     0     0     0
          0     0     0     0     0     0     0     0     0     0     0     0
  13      0    -2    -2    -2     0     0     0     0     0     0     0     0     0     0     0     0     0     0     0     0
          0     0     0     0     0     0     0     0     0     0     0     0     0     0     0     0     0     0     0     0
          0     0     0     0     0     0     0     0     0     0     0     0
  14      0    -2    -2    -2     0     0     0     0     0     0     0     0     0     0     0     0     0     0     0     0
          0     0     0     0     0     0     0     0     0     0     0     0     0     0     0     0     0     0     0     0
          0     0     0     0     0     0     0     0     0     0     0     0
  15      0    -2    -2    -2    -2     0     0     0     0     0     0     0     0     0     0     0     0     0     0     0
          0     0     0     0     0     0     0     0     0     0     0     0     0     0     0     0     0     0     0     0
          0     0     0     0     0     0     0     0     0     0     0     0
  16      0    -2    -2    -2    -2     0     0     0     0     0     0     0     0     0     0     0     0     0     0     0
          0     0     0     0     0     0     0     0     0     0     0     0     0     0     0     0     0     0     0     0
          0     0     0     0     0     0     0     0     0     0     0     0
  17      0    -2    -2    -2    -2     0     0     0     0     0     0     0     0     0     0     0     0     0     0     0
          0     0     0     0     0     0     0     0     0     0     0     0     0     0     0     0     0     0     0     0
          0     0     0     0     0     0     0     0     0     0     0     0
  18      0    -2    -2    -2    -2     0     0     0     0     0     0     0     0     0     0     0     0     0     0     0
          0     0     0     0     0     0     0     0     0     0     0     0     0     0     0     0     0     0     0     0
          0     0     0     0     0     0     0     0     0     0     0     0
  19      0    -2    -2    -2    -2     0     0     0     0     0     0     0     0     0     0     0     0     0     0     0
          0     0     0     0     0     0     0     0     0     0     0     0     0     0     0     0     0     0     0     0
          0     0     0     0     0     0     0     0     0     0     0     0
  20      0    -2    -2    -2    -2     0     0     0     0     0     0     0     0     0     0     0     0     0     0     0
          0     0     0     0     0     0     0     0     0     0     0     0     0     0     0     0     0     0     0     0
          0     0     0     0     0     0     0     0     0     0     0     0
  21      0    -2    -2    -2    -2     0     0     0     0     0     0     0     0     0     0     0     0     0     0     0
          0     0     0     0     0     0     0     0     0     0     0     0     0     0     0     0     0     0     0     0
          0     0     0     0     0     0     0     0     0     0     0     0
  22      0    -2    -2    -2    -2     0     0     0     0     0     0     0     0     0     0     0     0     0     0     0
          0     0     0     0     0     0     0     0     0     0     0     0     0     0     0     0     0     0     0     0
          0     0     0     0     0     0     0     0     0     0     0     0
  23      0    -2    -2    -2    -2    -2     0     0     0     0     0     0     0     0     0     0     0     0     0     0
          0     0     0     0     0     0     0     0     0     0     0     0     0     0     0     0     0     0     0     0
          0     0     0     0     0     0     0     0     0     0     0     0
  24      0     0    -2    -2    -2    -2     0     0     0     0     0     0     0     0     0     0     0     0     0     0
          0     0     0     0     0     0     0     0     0     0     0     0     0     0     0     0     0     0     0     0
          0     0     0     0     0     0     0     0     0     0     0     0
  25      0     0    -2    -2    -2    -2     0     0     0     0     0     0     0     0     0     0     0     0     0     0
          0     0     0     0     0     0     0     0     0     0     0     0     0     0     0     0     0     0     0     0
          0     0     0     0     0     0     0     0     0     0     0     0
  26      0     0    -2    -2    -2    -2     0     0     0     0     0     0     0     0     0     0     0     0     0     0
          0     0     0     0     0     0     0     0     0     0     0     0     0     0     0     0     0     0     0     0
          0     0     0     0     0     0     0     0     0     0     0     0
  27      0     0    -2    -2    -2    -2     0     0     0     0     0     0     0     0     0     0     0     0     0     0
          0     0     0     0     0     0     0     0     0     0     0     0     0     0     0     0     0     0     0     0
          0     0     0     0     0     0     0     0     0     0     0     0
  28      0     0    -2    -2    -2    -2     0     0     0     0     0     0     0     0     0     0     0     0     0     0
          0     0     0     0     0     0     0     0     0     0     0     0     0     0     0     0     0     0     0     0
          0     0     0     0     0     0     0     0     0     0     0     0
  29      0     0    -2    -2    -2    -2     0     0     0     0     0     0     0     0     0     0     0     0     0     0
          0     0     0     0     0     0     0     0     0     0     0     0     0     0     0     0     0     0     0     0
          0     0     0     0     0     0     0     0     0     0     0     0
  30      0     0    -2    -2    -2    -2     0     0     0     0     0     0     0     0     0     0     0     0     0     0
          0     0     0     0     0     0     0     0     0     0     0     0     0     0     0     0     0     0     0     0
          0     0     0     0     0     0     0     0     0     0     0     0
  31      0     0    -2    -2    -2    -2     0     0     0     0     0     0     0     0     0     0     0     0     0     0
          0     0     0     0     0     0     0     0     0     0     0     0     0     0     0     0     0     0     0     0
          0     0     0     0     0     0     0     0     0     0     0     0
  32      0     0    -2    -2    -2     0     0     0     0     0     0     0     0     0     0     0     0     0     0     0
          0     0     0     0     0     0     0     0     0     0     0     0     0     0     0     0     0     0     0     0
          0     0     0     0     0     0     0     0     0     0     0     0
  33      0     0    -2    -2    -2     0     0     0     0     0     0     0     0     0     0     0     0     0     0     0
          0     0     0     0     0     0     0     0     0     0     0     0     0     0     0     0     0     0     0     0
          0     0     0     0     0     0     0     0     0     0     0     0
  34      0     0    -2    -2    -2     0     0     0     0     0     0     0     0     0     0     0     0     0     0     0
          0     0     0     0     0     0     0     0     0     0     0     0     0     0     0     0     0     0     0     0
          0     0     0     0     0     0     0     0     0     0     0     0
  35      0     0     0     0     0     0     0     0     0     0     0     0     0     0     0     0     0     0     0     0
          0     0     0     0     0     0     0     0     0     0     0     0     0     0     0     0     0     0     0     0
          0     0     0     0     0     0     0     0     0     0     0     0
  36      0     0     0     0     0     0     0     0     0     0     0     0     0     0     0     0     0     0     0     0
          0     0     0     0     0     0     0     0     0     0     0     0     0     0     0     0     0     0     0     0
          0     0     0     0     0     0     0     0     0     0     0     0
  37      0     0     0     0     0     0     0     0     0     0     0     0     0     0     0     0     0     0     0     0
          0     0     0     0     0     0     0     0     0     0     0     0     0     0     0     0     0     0     0     0
          0     0     0     0     0     0     0     0     0     0     0     0
  38      0     0     0     0     0     0     0     0     0     0     0     0     0     0     0     0     0     0     0     0
          0     0     0     0     0     0     0     0     0     0     0     0     0     0     0     0     0     0     0     0
          0     0     0     0     0     0     0     0     0     0     0     0
  39      0     0     0     0     0     0     0     0     0     0     0     0     0     0     0     0     0     0     0     0
          0     0     0     0     0     0     0     0     0     0     0     0     0     0     0     0     0     0     0     0
          0     0     0     0     0     0     0     0     0     0     0     0
  40      0     0     0     0     0     0     0     0     0     0     0     0     0     0     0     0     0     0     0     0
          0     0     0     0     0     0     0     0     0     0     0     0     0     0     0     0     0     0     0     0
          0     0     0     0     0     0     0     0     0     0     0     0
  41      0     0     0     0     0     0     0     0     0     0     0     0     0     0     0     0     0     0     0     0
          0     0     0     0     0     0     0     0     0     0     0     0     0     0     0     0     0     0     0     0
          0     0     0     0     0     0     0     0     0     0     0     0
  42      0     0     0     0     0     0     0     0     0     0     0     0     0     0     0     0     0     0     0     0
          0     0     0     0     0     0     0     0     0     0     0     0     0     0     0     0     0     0     0     0
          0     0     0     0     0     0     0     0     0     0     0     0
  43      0     0     0     0     0     0     0     0     0     0     0     0     0     0     0     0     0     0     0     0
          0     0     0     0     0     0     0     0     0     0     0     0     0     0     0     0     0     0     0     0
          0     0     0     0     0     0     0     0     0     0     0     0
  44      0     0     0     0     0     0     0     0     0     0     0     0     0     0     0     0     0     0     0     0
          0     0     0     0     0     0     0     0     0     0     0     0     0     0     0     0     0     0     0     0
          0     0     0     0     0     0     0     0     0     0     0     0
  45      0     0     0     0     0     0     0     0     0     0     0     0     0     0     0     0     0     0     0     0
          0     0     0     0     0     0     0     0     0     0     0     0     0     0     0     0     0     0     0     0
          0     0     0     0     0     0     0     0     0     0     0     0
  46      0     0     0     0     0     0     0     0     0     0     0     0     0     0     0     0     0     0     0     0
          0     0     0     0     0     0     0     0     0     0     0     0     0     0     0     0     0     0     0     0
          0     0     0     0     0     0     0     0     0     0     0     0
  47      0     0     0     0     0     0     0     0     0     0     0     0     0     0     0     0     0     0     0     0
          0     0     0     0     0     0     0     0     0     0     0     0     0     0     0     0     0     0     0     0
          0     0     0     0     0     0     0     0     0     0     0     0
  48      0     0     0     0     0     0     0     0     0     0     0     0     0     0     0     0     0     0     0     0
          0     0     0     0     0     0     0     0     0     0     0     0     0     0     0     0     0     0     0     0
          0     0     0     0     0     0     0     0     0     0     0     0
  49      0     0     0     0     0     0     0     0     0     0     0     0     0     0     0     0     0     0     0     0
          0     0     0     0     0     0     0     0     0     0     0     0     0     0     0     0     0     0     0     0
          0     0     0     0     0     0     0     0     0     0     0     0
  50      0     0     0     0     0     0     0     0     0     0     0     0     0     0     0     0     0     0     0     0
          0     0     0     0     0     0     0     0     0     0     0     0     0     0     0     0     0     0     0     0
          0     0     0     0     0     0     0     0     0     0     0     0
  51      0     0     0     0     0     0     0     0     0     0     0     0     0     0     0     0     0     0     0     0
          0     0     0     0     0     0     0     0     0     0     0     0     0     0     0     0     0     0     0     0
          0     0     0     0     0     0     0     0     0     0     0     0
  52      0     0     0     0     0     0     0     0     0     0     0     0     0     0     0     0     0     0     0     0
          0     0     0     0     0     0     0     0     0     0     0     0     0     0     0     0     0     0     0     0
          0     0     0     0     0     0     0     0     0     0     0     0
  53      0     0     0     0     0     0     0     0     0     0     0     0     0     0     0     0     0     0     0     0
          0     0     0     0     0     0     0     0     0     0     0     0     0     0     0     0     0     0     0     0
          0     0     0     0     0     0     0     0     0     0     0     0
  54      0     0     0     0     0     0     0     0     0     0     0     0     0     0     0     0     0     0     0     0
          0     0     0     0     0     0     0     0     0     0     0     0     0     0     0     0     0     0     0     0
          0     0     0     0     0     0     0     0     0     0     0     0
  55      0     0     0     0     0     0     0     0     0     0     0     0     0     0     0     0     0     0     0     0
          0     0     0     0     0     0     0     0     0     0     0     0     0     0     0     0     0     0     0     0
          0     0     0     0     0     0     0     0     0     0     0     0
  56      0     0     0     0     0     0     0     0     0     0     0     0     0     0     0     0     0     0     0     0
          0     0     0     0     0     0     0     0     0     0     0     0     0     0     0     0     0     0     0     0
          0     0     0     0     0     0     0     0     0     0     0     0
  57      0     0     0     0     0     0     0     0     0     0     0     0     0     0     0     0     0     0     0     0
          0     0     0     0     0     0     0     0     0     0     0     0     0     0     0     0     0     0     0     0
          0     0     0     0     0     0     0     0     0     0     0     0
  58      0     0     0     0     0     0     0     0     0     0     0     0     0     0     0     0     0     0     0     0
          0     0     0     0     0     0     0     0     0     0     0     0     0     0     0     0     0     0     0     0
          0     0     0     0     0     0     0     0     0     0     0     0
  59      0     0     0     0     0     0     0     0     0     0     0     0     0     0     0     0     0     0     0     0
          0     0     0     0     0     0     0     0     0     0     0     0     0     0     0     0     0     0     0     0
          0     0     0     0     0     0     0     0     0     0     0     0
  60      0     0     0     0     0     0     0     0     0     0     0     0     0     0     0     0     0     0     0     0
          0     0     0     0     0     0     0     0     0     0     0     0     0     0     0     0     0     0     0     0
          0     0     0     0     0     0     0     0     0     0     0     0
  61      0     0     0     0     0     0     0     0     0     0     0     0     0     0     0     0     0     0     0     0
          0     0     0     0     0     0     0     0     0     0     0     0     0     0     0     0     0     0     0     0
          0     0     0     0     0     0     0     0     0     0     0     0
  62      0     0     0     0     0     0     0     0     0     0     0     0     0     0     0     0     0     0     0     0
          0     0     0     0     0     0     0     0     0     0     0     0     0     0     0     0     0     0     0     0
          0     0     0     0     0     0     0     0     0     0     0     0
  63      0     0     0     0     0     0     0     0     0     0     0     0     0     0     0     0     0     0     0     0
          0     0     0     0     0     0     0     0     0     0     0     0     0     0     0     0     0     0     0     0
          0     0     0     0     0     0     0     0     0     0     0     0
  64      0     0     0     0     0     0     0     0     0     0     0     0     0     0     0     0     0     0     0     0
          0     0     0     0     0     0     0     0     0     0     0     0     0     0     0     0     0     0     0     0
          0     0     0     0     0     0     0     0     0     0     0     0
  65      0     0     0     0     0     0     0     0     0     0     0     0     0     0     0     0     0     0     0     0
          0     0     0     0     0     0     0     0     0     0     0     0     0     0     0     0     0     0     0     0
          0     0     0     0     0     0     0     0     0     0     0     0
  66      0     0     0     0     0     0     0     0     0     0     0     0     0     0     0     0     0     0     0     0
          0     0     0     0     0     0     0     0     0     0     0     0     0     0     0     0     0     0     0     0
          0     0     0     0     0     0     0     0     0     0     0     0
  67      0     0     0     0     0     0     0     0     0     0     0     0     0     0     0     0     0     0     0     0
          0     0     0     0     0     0     0     0     0     0     0     0     0     0     0     0     0     0     0     0
          0     0     0     0     0     0     0     0     0     0     0     0
  68      0     0     0     0     0     0     0     0     0     0     0     0     0     0     0     0     0     0     0     0
          0     0     0     0     0     0     0     0     0     0     0     0     0     0     0     0     0     0     0     0
          0     0     0     0     0     0     0     0     0     0     0     0

                  IZONENR =              0 FOR LAYER   2
1
                            STRESS PERIOD NO.    1, LENGTH =  0.3153600E+10
                            -----------------------------------------------

                              NUMBER OF TIME STEPS =    50

                               MULTIPLIER FOR DELT =     1.000

                            INITIAL TIME STEP SIZE =  0.6307200E+08

 WELL NO.  LAYER   ROW   COL   STRESS RATE         IFACE           
 ------------------------------------------------------------------
      1      1      4     29       0.000           0.000    
      2      1     13     33       0.000           0.000    
      3      1     22     21       0.000           0.000    
      4      1     20     20       0.000           0.000    
      5      1     26     22       0.000           0.000    
      6      1     56     32       0.000           0.000    
      7      1     38     33       0.000           0.000    
      8      1     26     11       0.000           0.000    
      9      1     64     39       0.000           0.000    
     10      1     23     24       0.000           0.000    
     11      1     36     31       0.000           0.000    
     12      1     45     27       0.000           0.000    
     13      1     17     38       0.000           0.000    
     14      1     55     39       0.000           0.000    
     15      1     29     25       0.000           0.000    
     16      1     25     15       0.000           0.000    
     17      1     47     26       0.000           0.000    
     18      1     30     25       0.000           0.000    
     19      1      5     33       0.000           0.000    
     20      1     26     37       0.000           0.000    
     21      1      7     12       0.000           0.000    
     22      1     45     36       0.000           0.000    
     23      1     17     24       0.000           0.000    
     24      1     61     45       0.000           0.000    
     25      1     28     15       0.000           0.000    
     26      1     27     32       0.000           0.000    
     27      1      8      9       0.000           0.000    
     28      1     32     15       0.000           0.000    
     29      1     39     20       0.000           0.000    
     30      1     37     14       0.000           0.000    
     31      1     25     27       0.000           0.000    
     32      1      9     18       0.000           0.000    
     33      1     16     31       0.000           0.000    
     34      1     30      8       0.000           0.000    
     35      1     36     13       0.000           0.000    
     36      1     54     35       0.000           0.000    
     37      1     32     30       0.000           0.000    
     38      1     47     35       0.000           0.000    
     39      1     13     13       0.000           0.000    
     40      1     15     31       0.000           0.000    
     41      1     24     18       0.000           0.000    
     42      1     11     24       0.000           0.000    
     43      1     50     30       0.000           0.000    
     44      1     35     14       0.000           0.000    
     45      1     64     41       0.000           0.000    
     46      1     21     46       0.000           0.000    
     47      1      5     19       0.000           0.000    
     48      1     33     10       0.000           0.000    
     49      1     33     22       0.000           0.000    
     50      1     43     23       0.000           0.000    
     51      1     37     17       0.000           0.000    
     52      1     32     20       0.000           0.000    
     53      1     33     35       0.000           0.000    
     54      1     49     38       0.000           0.000    
     55      1     13     14       0.000           0.000    
     56      1     20     44       0.000           0.000    
     57      1     42     21       0.000           0.000    
     58      1     16     19       0.000           0.000    
     59      1     31     33       0.000           0.000    
     60      1      5     14       0.000           0.000    
     61      1     10      9       0.000           0.000    
     62      1     57     36       0.000           0.000    
     63      1     49     25       0.000           0.000    
     64      1     10     26       0.000           0.000    
     65      1     28     30       0.000           0.000    
     66      1      7     13       0.000           0.000    
     67      1     59     42       0.000           0.000    
     68      1      6     19       0.000           0.000    
     69      1     46     32       0.000           0.000    
     70      1      3     21       0.000           0.000    
     71      1     66     44       0.000           0.000    
     72      1     52     31       0.000           0.000    
     73      1     24     33       0.000           0.000    
     74      1      9     30       0.000           0.000    
     75      1     63     46       0.000           0.000    
     76      1     42     31       0.000           0.000    
     77      1     34     10       0.000           0.000    
     78      1     32     26       0.000           0.000    
     79      1     25     19       0.000           0.000    
     80      1     32     24       0.000           0.000    
     81      1     42     25       0.000           0.000    
     82      1     45     28       0.000           0.000    
     83      1     17     27       0.000           0.000    
     84      1     31     11       0.000           0.000    
     85      1     23     33       0.000           0.000    
     86      1     10     13       0.000           0.000    
     87      1     34     16       0.000           0.000    
     88      1     23     37       0.000           0.000    
     89      1     34     35       0.000           0.000    
     90      1     10     33       0.000           0.000    
     91      1     28     19       0.000           0.000    
     92      1     19     26       0.000           0.000    
     93      1     20     23       0.000           0.000    
     94      1     25      9       0.000           0.000    
     95      1     60     35       0.000           0.000    
     96      1     16     18       0.000           0.000    
     97      1      6     24       0.000           0.000    
     98      1     40     29       0.000           0.000    
     99      1     12     22       0.000           0.000    
    100      1     18     10       0.000           0.000    
    101      1     18      8       0.000           0.000    
    102      1     20      9       0.000           0.000    
    103      1     20      8       0.000           0.000    
    104      1     17     11       0.000           0.000    
    105      1     16     11       0.000           0.000    
    106      1     19     11       0.000           0.000    
    107      1     14      8       0.000           0.000    
    108      1     22     11       0.000           0.000    
    109      1     20     11       0.000           0.000    
    110      1     15      8       0.000           0.000    
    111      1     22     10       0.000           0.000    
    112      1     19      8       0.000           0.000    
    113      1     21     13       0.000           0.000    
    114      1     20      8       0.000           0.000    
    115      1     20     10       0.000           0.000    
    116      1     14      9       0.000           0.000    
    117      1     20     14       0.000           0.000    
    118      1     19     10       0.000           0.000    
    119      1     18     12       0.000           0.000    
    120      1     15     11       0.000           0.000    
    121      1     19      9       0.000           0.000    
    122      1     17      9       0.000           0.000    
    123      1     22     11       0.000           0.000    
    124      1     18     10       0.000           0.000    
    125      1     15      9       0.000           0.000    
    126      1     16      9       0.000           0.000    
    127      1     19     12       0.000           0.000    
    128      1     18     13       0.000           0.000    
    129      1     17     10       0.000           0.000    
    130      1     18     11       0.000           0.000    
    131      1     22      9       0.000           0.000    
    132      1     16     10       0.000           0.000    
    133      1     15     10       0.000           0.000    
    134      1     23      9       0.000           0.000    
    135      1     17      8       0.000           0.000    
    136      1     17     13       0.000           0.000    
    137      1     21     11       0.000           0.000    
    138      1     16      8       0.000           0.000    
    139      1     20      9       0.000           0.000    
    140      1     21      9       0.000           0.000    
    141      1     16      7       0.000           0.000    
    142      1     16     13       0.000           0.000    
    143      1     18      9       0.000           0.000    
    144      1     13     10       0.000           0.000    
    145      1     17     11       0.000           0.000    
    146      1     21     15       0.000           0.000    
    147      1     15     12       0.000           0.000    
    148      1     23     13       0.000           0.000    
    149      1     18     15       0.000           0.000    

    149 WELLS

 REACH NO.  LAYER   ROW   COL     STAGE      CONDUCTANCE     BOTTOM EL.         IFACE           
 -----------------------------------------------------------------------------------------------
      1      1     67     45       146.8          0.1000E-02       145.8           0.000    
      2      1     66     45       143.9          0.1000E-02       142.9           0.000    
      3      1     65     45       142.5          0.1000E-02       141.5           0.000    
      4      1     65     44       141.5          0.1000E-02       140.5           0.000    
      5      1     64     44       137.0          0.1000E-02       136.0           0.000    
      6      1     64     43       136.4          0.1000E-02       135.4           0.000    
      7      1     63     43       133.0          0.1000E-02       132.0           0.000    
      8      1     62     43       133.0          0.1000E-02       132.0           0.000    
      9      1     62     42       128.8          0.1000E-02       127.8           0.000    
     10      1     61     42       128.4          0.1000E-02       127.4           0.000    
     11      1     61     41       123.2          0.1000E-02       122.2           0.000    
     12      1     61     40       120.8          0.1000E-02       119.8           0.000    
     13      1     60     40       119.3          0.1000E-02       118.3           0.000    
     14      1     60     39       117.7          0.1000E-02       116.7           0.000    
     15      1     59     39       120.0          0.1000E-02       119.0           0.000    
     16      1     58     39       117.3          0.1000E-02       116.3           0.000    
     17      1     58     38       111.2          0.1000E-02       110.2           0.000    
     18      1     57     38       114.9          0.1000E-02       113.9           0.000    
     19      1     56     38       113.9          0.1000E-02       112.9           0.000    
     20      1     55     38       111.6          0.1000E-02       110.6           0.000    
     21      1     54     38       113.6          0.1000E-02       112.6           0.000    
     22      1     53     38       102.0          0.1000E-02       101.0           0.000    
     23      1     53     37       100.4          0.1000E-02       99.36           0.000    
     24      1     52     37       97.68          0.1000E-02       96.68           0.000    
     25      1     52     36       88.87          0.1000E-02       87.87           0.000    
     26      1     51     36       90.20          0.1000E-02       89.20           0.000    
     27      1     51     35       88.17          0.1000E-02       87.17           0.000    
     28      1     50     35       83.57          0.1000E-02       82.57           0.000    
     29      1     49     35       84.65          0.1000E-02       83.65           0.000    
     30      1     49     34       84.84          0.1000E-02       83.84           0.000    
     31      1     48     34       86.07          0.1000E-02       85.07           0.000    
     32      1     48     33       83.07          0.1000E-02       82.07           0.000    
     33      1     47     33       75.17          0.1000E-02       74.17           0.000    
     34      1     46     33       76.07          0.1000E-02       75.07           0.000    
     35      1     46     32       76.20          0.1000E-02       75.20           0.000    
     36      1     45     32       69.88          0.1000E-02       68.88           0.000    
     37      1     44     32       67.95          0.1000E-02       66.95           0.000    
     38      1     44     31       65.25          0.1000E-02       64.25           0.000    
     39      1     44     30       60.37          0.1000E-02       59.37           0.000    
     40      1     43     30       59.98          0.1000E-02       58.98           0.000    
     41      1     43     29       58.07          0.1000E-02       57.07           0.000    
     42      1     42     29       57.97          0.1000E-02       56.97           0.000    
     43      1     42     28       58.32          0.1000E-02       57.32           0.000    
     44      1     41     28       55.24          0.1000E-02       54.24           0.000    
     45      1     41     27       54.96          0.1000E-02       53.96           0.000    
     46      1     40     27       51.38          0.1000E-02       50.38           0.000    
     47      1     40     26       50.51          0.1000E-02       49.51           0.000    
     48      1     39     26       47.40          0.1000E-02       46.40           0.000    
     49      1     39     25       42.90          0.1000E-02       41.90           0.000    
     50      1     38     25       40.56          0.1000E-02       39.56           0.000    
     51      1     38     24       42.07          0.1000E-02       41.07           0.000    
     52      1     38     23       41.75          0.1000E-02       40.75           0.000    
     53      1     37     23       37.49          0.1000E-02       36.49           0.000    
     54      1     37     22       34.05          0.1000E-02       33.05           0.000    
     55      1     37     21       29.27          0.1000E-02       28.27           0.000    
     56      1     36     21       28.91          0.1000E-02       27.91           0.000    
     57      1     36     20       29.67          0.1000E-02       28.67           0.000    
     58      1     35     20       32.78          0.1000E-02       31.77           0.000    
     59      1     35     19       29.32          0.1000E-02       28.32           0.000    
     60      1     34     19       25.02          0.1000E-02       24.02           0.000    
     61      1     33     19       26.72          0.1000E-02       25.72           0.000    
     62      1     33     18       23.39          0.1000E-02       22.39           0.000    
     63      1     32     18       21.88          0.1000E-02       20.88           0.000    
     64      1     31     18       18.38          0.1000E-02       17.38           0.000    
     65      1     31     17       19.38          0.1000E-02       18.38           0.000    
     66      1     30     17       15.90          0.1000E-02       14.90           0.000    
     67      1     30     16       17.54          0.1000E-02       16.54           0.000    
     68      1     29     16       17.67          0.1000E-02       16.67           0.000    
     69      1     29     15       10.95          0.1000E-02       9.951           0.000    
     70      1     29     14       8.262          0.1000E-02       7.262           0.000    
     71      1     28     14       10.26          0.1000E-02       9.260           0.000    
     72      1     28     13       8.227          0.1000E-02       7.227           0.000    
     73      1     28     12       7.585          0.1000E-02       6.585           0.000    
     74      1     28     11       6.850          0.1000E-02       5.850           0.000    
     75      1     28     10       5.111          0.1000E-02       4.111           0.000    
     76      1     28      9       4.122          0.1000E-02       3.122           0.000    
     77      1     28      8       4.100          0.1000E-02       3.100           0.000    
     78      1     27      8       5.422          0.1000E-02       4.422           0.000    
     79      1     27      7       4.370          0.1000E-02       3.370           0.000    

     79 RIVER REACHES



                         ET SURFACE
 READING ON UNIT   25 WITH FORMAT: (FREE)              

            1           2           3           4           5           6           7           8           9          10
           11          12          13          14          15          16          17          18          19          20
           21          22          23          24          25          26          27          28          29          30
           31          32          33          34          35          36          37          38          39          40
           41          42          43          44          45          46          47          48          49          50
           51          52
 ........................................................................................................................
   1    0.000       0.000       0.000       0.000       0.000       0.000       0.000       0.000       0.000       0.000    
        0.000       0.000       0.000       0.000       0.000       0.000       0.000       0.000       0.000       0.000    
        32.34       31.40       34.71       38.87       43.30       51.51       66.84       72.92       70.33       0.000    
        0.000       0.000       0.000       0.000       0.000       0.000       0.000       0.000       0.000       0.000    
        0.000       0.000       0.000       0.000       0.000       0.000       0.000       0.000       0.000       0.000    
        0.000       0.000    
   2    0.000       0.000       0.000       0.000       0.000       0.000       0.000       0.000       0.000       0.000    
        0.000       0.000       0.000       0.000       0.000       0.000       0.000       0.000       0.000       30.67    
        30.17       26.49       37.09       40.46       41.51       48.31       52.76       63.83       69.54       78.72    
        102.8       0.000       0.000       0.000       0.000       0.000       0.000       0.000       0.000       0.000    
        0.000       0.000       0.000       0.000       0.000       0.000       0.000       0.000       0.000       0.000    
        0.000       0.000    
   3    0.000       0.000       0.000       0.000       0.000       0.000       0.000       0.000       0.000       0.000    
        0.000       0.000       0.000       0.000       0.000       0.000       0.000       19.17       17.96       16.45    
        24.54       20.98       34.46       43.44       49.00       48.55       57.44       64.93       70.60       79.00    
        93.47       92.09       97.12       0.000       0.000       0.000       0.000       0.000       0.000       0.000    
        0.000       0.000       0.000       0.000       0.000       0.000       0.000       0.000       0.000       0.000    
        0.000       0.000    
   4    0.000       0.000       0.000       0.000       0.000       0.000       0.000       0.000       0.000       0.000    
        6.140       8.075       8.146       7.833       6.870       6.300       10.32       12.86       18.43       17.00    
        19.17       25.82       34.37       44.83       49.22       53.04       62.46       68.93       74.93       78.76    
        86.20       92.40       90.39       117.4       128.8       0.000       0.000       0.000       0.000       0.000    
        0.000       0.000       0.000       0.000       0.000       0.000       0.000       0.000       0.000       0.000    
        0.000       0.000    
   5    0.000       0.000       0.000       0.000       0.000       0.000       0.000       8.950       8.195       6.444    
        4.000       6.022       10.13       7.400       7.625       8.512       8.600       10.89       14.79       17.53    
        17.53       30.53       36.22       42.10       49.05       52.49       60.05       68.71       78.83       78.87    
        88.88       103.8       110.4       117.3       139.2       152.6       0.000       0.000       0.000       0.000    
        0.000       0.000       0.000       0.000       0.000       0.000       0.000       0.000       0.000       0.000    
        0.000       0.000    
   6    0.000       0.000       0.000       0.000       0.000       0.000       0.000       7.293       7.048       8.958    
        8.068       8.512       7.279       7.524       5.268       8.825       9.500       11.70       18.63       14.57    
        24.64       29.68       34.83       41.05       48.12       53.47       59.93       59.17       69.18       82.60    
        94.12       111.6       133.2       137.5       137.8       146.4       0.000       0.000       0.000       0.000    
        0.000       0.000       0.000       0.000       0.000       0.000       0.000       0.000       0.000       0.000    
        0.000       0.000    
   7    0.000       0.000       0.000       0.000       0.000       0.000       0.000       12.98       5.680       5.700    
        10.98       10.50       8.178       10.54       11.68       18.53       16.67       24.88       50.88       37.54    
        23.49       24.10       48.28       52.02       48.32       50.45       56.46       56.95       66.23       88.20    
        110.0       108.2       130.7       128.2       132.9       150.0       0.000       0.000       0.000       0.000    
        0.000       0.000       0.000       0.000       0.000       0.000       0.000       0.000       0.000       0.000    
        0.000       0.000    
   8    0.000       0.000       0.000       0.000       0.000       0.000       0.000       11.00       4.952       5.805    
        8.100       7.568       12.60       8.467       10.95       11.24       15.34       29.00       49.54       67.07    
        35.95       28.38       38.02       45.44       42.95       47.17       50.97       50.38       64.33       84.76    
        88.68       105.2       125.4       139.0       130.0       135.4       0.000       0.000       0.000       0.000    
        0.000       0.000       0.000       0.000       0.000       0.000       0.000       0.000       0.000       0.000    
        0.000       0.000    
   9    0.000       0.000       0.000       0.000       0.000       0.000       0.000       7.511       5.073       9.450    
        9.561       8.700       10.68       10.60       11.41       11.96       14.10       25.85       46.05       78.66    
        59.33       42.41       32.88       33.84       35.61       48.10       44.51       45.18       53.85       58.25    
        66.83       91.07       103.7       112.7       119.1       0.000       0.000       0.000       0.000       0.000    
        0.000       0.000       0.000       0.000       0.000       0.000       0.000       0.000       0.000       0.000    
        0.000       0.000    
  10    0.000       0.000       0.000       0.000       0.000       0.000       0.000       7.238       8.537       10.82    
        13.10       13.57       14.45       11.85       16.66       15.32       19.81       26.91       61.62       93.93    
        87.44       45.67       34.64       31.59       29.45       44.58       43.80       43.20       49.28       58.83    
        65.67       71.41       85.36       94.27       102.6       0.000       0.000       0.000       0.000       0.000    
        0.000       0.000       0.000       0.000       0.000       0.000       0.000       0.000       0.000       0.000    
        0.000       0.000    
  11    0.000       0.000       0.000       0.000       0.000       0.000       0.000       4.400       6.727       7.829    
        18.76       11.43       13.49       11.38       13.45       20.18       29.33       44.50       72.96       86.29    
        50.75       38.24       26.52       29.47       29.15       45.43       39.43       42.10       49.10       64.05    
        101.5       92.27       94.83       100.6       118.3       0.000       0.000       0.000       0.000       0.000    
        0.000       0.000       0.000       0.000       0.000       0.000       0.000       0.000       0.000       0.000    
        0.000       0.000    
  12    0.000       0.000       0.000       0.000       0.000       0.000       0.000       5.350       5.585       6.841    
        12.78       14.63       13.57       12.38       8.326       19.34       24.73       52.67       86.41       59.80    
        33.73       27.54       25.21       29.45       35.10       32.36       33.22       37.88       39.82       64.52    
        110.2       122.2       133.7       117.8       116.5       0.000       0.000       0.000       0.000       0.000    
        0.000       0.000       0.000       0.000       0.000       0.000       0.000       0.000       0.000       0.000    
        0.000       0.000    
  13    0.000       0.000       0.000       0.000       0.000       0.000       0.000       5.756       5.325       7.956    
        8.476       12.47       14.98       16.80       11.17       14.07       22.78       29.53       53.70       48.44    
        15.49       26.27       27.25       31.37       34.63       25.43       30.58       36.87       31.52       55.44    
        72.66       82.70       97.74       107.6       99.80       0.000       0.000       0.000       0.000       0.000    
        0.000       0.000       0.000       0.000       0.000       0.000       0.000       0.000       0.000       0.000    
        0.000       0.000    
  14    0.000       0.000       0.000       0.000       0.000       0.000       0.000       6.650       6.326       7.239    
        7.682       9.050       15.40       17.02       25.98       17.51       17.29       22.47       21.31       19.73    
        14.67       30.65       26.56       39.05       27.27       18.16       27.44       27.88       43.20       49.12    
        46.97       44.15       52.54       58.23       72.28       0.000       0.000       0.000       0.000       0.000    
        0.000       0.000       0.000       0.000       0.000       0.000       0.000       0.000       0.000       0.000    
        0.000       0.000    
  15    0.000       0.000       0.000       0.000       0.000       0.000       0.000       5.378       8.292       7.317    
        6.875       8.805       12.96       16.83       12.88       15.11       11.45       11.62       18.56       17.41    
        25.45       27.85       32.39       31.83       31.50       23.76       30.15       27.88       39.91       37.37    
        40.93       41.47       47.26       49.00       54.22       60.35       0.000       0.000       0.000       0.000    
        0.000       0.000       0.000       0.000       0.000       0.000       0.000       0.000       0.000       0.000    
        0.000       0.000    
  16    0.000       0.000       0.000       0.000       0.000       0.000       0.000       6.556       6.537       7.300    
        9.098       9.978       13.60       9.844       10.42       15.96       12.93       12.85       14.02       19.80    
        22.07       30.40       33.90       29.69       28.85       31.92       26.27       38.67       44.09       36.09    
        42.85       41.89       48.47       47.59       47.28       49.94       59.44       0.000       0.000       0.000    
        0.000       0.000       0.000       0.000       0.000       0.000       0.000       0.000       0.000       0.000    
        0.000       0.000    
  17    0.000       0.000       0.000       0.000       0.000       0.000       0.000       6.933       7.050       7.902    
        8.262       10.76       12.60       12.54       9.488       12.25       12.98       9.400       15.89       18.62    
        21.40       34.70       27.09       25.14       32.70       33.78       26.87       41.40       39.75       35.29    
        44.12       43.10       49.61       44.69       46.00       54.95       56.88       62.62       68.16       67.17    
        0.000       0.000       0.000       0.000       0.000       0.000       0.000       0.000       0.000       0.000    
        0.000       0.000    
  18    0.000       0.000       0.000       0.000       0.000       0.000       0.000       7.000       8.357       8.889    
        9.521       15.07       10.71       11.75       9.600       11.05       12.67       9.133       12.52       14.63    
        21.80       33.85       18.76       27.35       31.27       32.71       33.96       44.30       46.00       35.10    
        43.13       37.90       44.80       50.05       47.80       60.73       62.50       61.12       67.64       60.33    
        72.11       68.45       79.36       108.7       0.000       0.000       0.000       0.000       0.000       0.000    
        0.000       0.000    
  19    0.000       0.000       0.000       0.000       0.000       0.000       0.000       8.378       9.773       8.195    
        9.864       11.49       8.325       10.31       10.94       9.756       14.40       12.43       25.59       19.42    
        29.27       19.74       24.54       25.56       19.20       33.05       30.43       42.56       43.85       33.02    
        35.70       38.11       48.53       53.43       50.50       55.53       55.51       54.28       58.33       60.67    
        68.68       71.76       68.78       74.51       76.50       112.1       98.93       88.27       81.25       77.27    
        80.00       85.03    
  20    0.000       0.000       0.000       0.000       0.000       0.000       0.000       8.488       8.775       8.511    
        9.000       8.550       7.163       8.720       8.048       9.825       12.51       15.09       22.20       23.39    
        37.27       24.00       28.10       16.95       21.33       32.76       24.02       40.59       40.31       27.27    
        30.05       30.98       49.41       49.67       48.00       44.58       56.84       57.02       60.72       67.49    
        65.00       68.91       70.71       72.20       74.98       84.67       84.68       75.60       72.48       79.93    
        78.44       84.31    
  21    0.000       0.000       0.000       0.000       0.000       0.000       0.000       7.925       7.683       7.089    
        10.16       10.60       6.591       8.886       6.425       10.20       11.93       19.84       18.47       25.47    
        33.75       28.14       26.46       24.48       24.72       29.77       26.36       36.91       39.86       26.74    
        34.12       34.15       37.41       41.33       45.24       50.28       65.73       62.05       59.61       61.12    
        60.36       62.14       68.51       74.44       78.29       79.37       79.75       69.27       70.84       83.33    
        86.57       0.000    
  22    0.000       0.000       0.000       0.000       0.000       0.000       0.000       6.561       5.596       6.267    
        7.881       7.122       7.800       11.40       10.44       13.02       12.57       16.31       22.20       41.25    
        35.56       19.68       19.62       25.85       22.84       26.41       27.60       38.85       24.96       33.03    
        37.46       43.29       32.04       50.49       51.10       46.45       0.000       89.41       63.75       59.62    
        61.49       65.07       67.93       66.83       74.91       78.53       87.05       81.04       86.14       0.000    
        0.000       0.000    
  23    0.000       0.000       0.000       0.000       0.000       0.000       0.000       7.696       6.723       6.475    
        7.537       7.976       9.140       13.46       16.37       13.51       11.98       14.34       24.40       29.28    
        24.40       25.60       21.78       30.60       28.52       29.95       31.15       39.68       33.63       35.26    
        37.40       38.47       35.49       38.90       42.88       54.47       66.80       0.000       0.000       0.000    
        73.49       64.30       60.76       72.24       78.22       73.96       77.09       95.98       0.000       0.000    
        0.000       0.000    
  24    0.000       0.000       0.000       0.000       0.000       0.000       0.000       7.044       7.975       9.805    
        8.425       10.04       11.05      10.000       12.00       11.64       13.29       11.30       30.32       21.87    
        21.40       22.76       21.90       27.93       24.92       27.15       28.02       37.38       35.49       31.30    
        31.15       31.91       36.15       41.70       38.24       41.50       56.00       0.000       0.000       0.000    
        0.000       0.000       0.000       0.000       0.000       0.000       98.17       0.000       0.000       0.000    
        0.000       0.000    
  25    0.000       0.000       0.000       0.000       0.000       0.000       0.000       7.568       7.024       7.250    
        7.956       10.62       10.19       13.73       14.60       13.07       11.43       20.27       21.02       18.83    
        19.15       23.27       20.14       19.10       21.41       24.17       30.49       39.52       41.51       35.83    
        39.18       27.59       32.42       43.95       38.34       35.02       53.45       0.000       0.000       0.000    
        0.000       0.000       0.000       0.000       0.000       0.000       0.000       0.000       0.000       0.000    
        0.000       0.000    
  26    0.000       0.000       0.000       0.000       0.000       0.000       0.000       10.41       7.349       6.289    
        9.936       9.293       9.900       11.17       13.38       16.80       17.44       23.98       18.91       21.25    
        18.46       23.20       19.07       23.31       32.04       27.50       26.44       36.71       39.28       40.54    
        41.20       30.49       32.27       38.30       30.07       33.62       55.93       0.000       0.000       0.000    
        0.000       0.000       0.000       0.000       0.000       0.000       0.000       0.000       0.000       0.000    
        0.000       0.000    
  27    0.000       0.000       0.000       0.000       0.000       0.000       0.000       0.000       7.524       8.093    
        12.84       9.475       12.83       10.30       14.07       13.47       15.80       15.56       20.36       23.76    
        24.33       19.18       20.26       27.09       29.08       25.11       27.39       32.85       37.51       30.04    
        42.18       39.17       35.73       31.36       44.55       40.73       69.18       0.000       0.000       0.000    
        0.000       0.000       0.000       0.000       0.000       0.000       0.000       0.000       0.000       0.000    
        0.000       0.000    
  28    0.000       0.000       0.000       0.000       0.000       0.000       0.000       0.000       5.122       6.111    
        7.850       8.585       9.227       11.26       13.51       14.66       24.90       17.13       17.76       26.73    
        24.18       23.14       31.39       33.38       31.51       28.47       31.40       41.91       38.38       23.44    
        41.70       38.17       24.98       33.20       46.71       39.07       86.21       0.000       0.000       0.000    
        0.000       0.000       0.000       0.000       0.000       0.000       0.000       0.000       0.000       0.000    
        0.000       0.000    
  29    0.000       0.000       0.000       0.000       0.000       0.000       0.000       0.000       6.071       8.512    
        10.98       8.156       12.50       9.262       11.95       18.67       19.41       17.24       18.18       19.75    
        19.36       20.90       26.70       29.17       32.52       32.98       40.51       41.93       38.60       36.20    
        43.63       43.15       43.80       45.43       48.62       41.02       60.13       0.000       0.000       0.000    
        0.000       0.000       0.000       0.000       0.000       0.000       0.000       0.000       0.000       0.000    
        0.000       0.000    
  30    0.000       0.000       0.000       0.000       0.000       0.000       0.000       0.000       7.265       8.422    
        8.095       9.350       11.51       15.27       17.75       18.54       16.90       19.20       22.67       20.39    
        18.96       24.55       24.41       28.68       35.30       35.56       44.56       37.00       37.05       36.29    
        44.22       45.07       49.31       44.64       38.90       51.00       0.000       0.000       0.000       0.000    
        0.000       0.000       0.000       0.000       0.000       0.000       0.000       0.000       0.000       0.000    
        0.000       0.000    
  31    0.000       0.000       0.000       0.000       0.000       0.000       0.000       0.000       7.628       11.05    
        8.775       8.409       8.214       14.32       21.98       19.60       20.38       19.38       21.12       25.89    
        26.66       27.00       31.64       32.90       41.38       41.90       41.25       37.58       39.95       41.09    
        42.80       45.43       42.34       26.62       30.76       41.89       0.000       0.000       0.000       0.000    
        0.000       0.000       0.000       0.000       0.000       0.000       0.000       0.000       0.000       0.000    
        0.000       0.000    
  32    0.000       0.000       0.000       0.000       0.000       0.000       0.000       0.000       8.366       11.48    
        11.80       7.889       12.59       16.58       22.15       21.09       29.05       22.88       22.75       24.96    
        27.47       29.52       35.40       34.98       41.59       47.30       36.88       42.51       37.96       45.05    
        45.64       42.25       50.25       31.15       40.57       49.36       0.000       0.000       0.000       0.000    
        0.000       0.000       0.000       0.000       0.000       0.000       0.000       0.000       0.000       0.000    
        0.000       0.000    
  33    0.000       0.000       0.000       0.000       0.000       0.000       0.000       0.000       7.325       8.756    
        11.30       11.74       13.07       18.59       20.95       28.80       23.37       24.39       27.72       24.30    
        25.73       33.67       36.91       41.10       41.83       49.63       49.72       41.42       44.83       46.61    
        48.44       49.97       55.68       47.98       53.04       64.49       0.000       0.000       0.000       0.000    
        0.000       0.000       0.000       0.000       0.000       0.000       0.000       0.000       0.000       0.000    
        0.000       0.000    
  34    0.000       0.000       0.000       0.000       0.000       0.000       0.000       0.000       0.000       7.444    
        9.130       8.675       14.17       18.17       28.76       28.61       25.47       26.41       26.02       29.93    
        28.98       39.56       39.64       45.38       46.13       46.32       52.59       48.45       50.76       50.98    
        52.82       58.07       59.09       53.93       54.40       65.22       0.000       0.000       0.000       0.000    
        0.000       0.000       0.000       0.000       0.000       0.000       0.000       0.000       0.000       0.000    
        0.000       0.000    
  35    0.000       0.000       0.000       0.000       0.000       0.000       0.000       0.000       0.000       14.09    
        12.88       9.415       13.65       18.09       20.96       28.42       29.48       26.18       30.32       33.78    
        29.39       37.94       43.42       45.56       48.98       44.89       51.28       58.71       52.85       51.29    
        56.29       57.29       65.65       62.84       61.05       60.78       0.000       0.000       0.000       0.000    
        0.000       0.000       0.000       0.000       0.000       0.000       0.000       0.000       0.000       0.000    
        0.000       0.000    
  36    0.000       0.000       0.000       0.000       0.000       0.000       0.000       0.000       0.000       0.000    
        16.07       18.48       22.04       20.35       20.54       22.77       26.29       28.64       29.30       30.67    
        29.91       31.96       42.47       44.05       41.54       48.55       49.29       53.60       53.32       54.30    
        61.49       59.12       63.33       64.14       57.55       60.31       0.000       0.000       0.000       0.000    
        0.000       0.000       0.000       0.000       0.000       0.000       0.000       0.000       0.000       0.000    
        0.000       0.000    
  37    0.000       0.000       0.000       0.000       0.000       0.000       0.000       0.000       0.000       0.000    
        23.02       17.07       25.62       24.90       19.15       21.17       30.42       34.81       32.87       35.05    
        30.27       35.05       38.49       42.78       45.13       49.11       53.76       57.43       53.82       53.15    
        56.05       59.71       62.22       62.48       56.42       67.34       0.000       0.000       0.000       0.000    
        0.000       0.000       0.000       0.000       0.000       0.000       0.000       0.000       0.000       0.000    
        0.000       0.000    
  38    0.000       0.000       0.000       0.000       0.000       0.000       0.000       0.000       0.000       0.000    
        0.000       0.000       0.000       23.60       23.12       26.78       28.86       30.00       36.46       41.24    
        37.57       39.85       42.75       43.07       41.56       49.19       55.35       55.00       53.60       53.45    
        64.93       64.02       70.83       68.71       63.73       73.56       77.45       0.000       0.000       0.000    
        0.000       0.000       0.000       0.000       0.000       0.000       0.000       0.000       0.000       0.000    
        0.000       0.000    
  39    0.000       0.000       0.000       0.000       0.000       0.000       0.000       0.000       0.000       0.000    
        0.000       0.000       0.000       0.000       0.000       0.000       27.30       30.76       35.05       40.98    
        40.07       40.05       44.09       45.43       43.90       48.40       55.34       50.31       51.53       55.86    
        66.80       70.20       74.95       67.05       71.53       68.89       75.44       0.000       0.000       0.000    
        0.000       0.000       0.000       0.000       0.000       0.000       0.000       0.000       0.000       0.000    
        0.000       0.000    
  40    0.000       0.000       0.000       0.000       0.000       0.000       0.000       0.000       0.000       0.000    
        0.000       0.000       0.000       0.000       0.000       0.000       0.000       53.30       42.48       39.96    
        41.89       47.51       52.21       48.77       48.65       51.51       52.38       48.36       50.62       59.64    
        61.30       67.00       61.20       66.05       76.00       82.07       85.87       0.000       0.000       0.000    
        0.000       0.000       0.000       0.000       0.000       0.000       0.000       0.000       0.000       0.000    
        0.000       0.000    
  41    0.000       0.000       0.000       0.000       0.000       0.000       0.000       0.000       0.000       0.000    
        0.000       0.000       0.000       0.000       0.000       0.000       0.000       0.000       44.38       40.95    
        45.75       44.68       55.51       50.78       52.24       60.16       55.96       56.24       56.44       57.90    
        63.82       70.07       63.62       65.53       81.37       69.10       84.47       0.000       0.000       0.000    
        0.000       0.000       0.000       0.000       0.000       0.000       0.000       0.000       0.000       0.000    
        0.000       0.000    
  42    0.000       0.000       0.000       0.000       0.000       0.000       0.000       0.000       0.000       0.000    
        0.000       0.000       0.000       0.000       0.000       0.000       0.000       0.000       49.07       46.92    
        51.02       55.67       53.49       57.57       56.98       58.84       60.62       59.32       58.97       60.07    
        63.56       68.24       73.98       65.59       76.67       71.78       80.73       0.000       0.000       0.000    
        0.000       0.000       0.000       0.000       0.000       0.000       0.000       0.000       0.000       0.000    
        0.000       0.000    
  43    0.000       0.000       0.000       0.000       0.000       0.000       0.000       0.000       0.000       0.000    
        0.000       0.000       0.000       0.000       0.000       0.000       0.000       0.000       0.000       50.78    
        54.05       58.08       56.49       57.07       58.00       59.78       61.90       63.85       59.07       60.98    
        56.47       70.25       73.49       77.09       85.62       85.05       82.83       93.80       0.000       0.000    
        0.000       0.000       0.000       0.000       0.000       0.000       0.000       0.000       0.000       0.000    
        0.000       0.000    
  44    0.000       0.000       0.000       0.000       0.000       0.000       0.000       0.000       0.000       0.000    
        0.000       0.000       0.000       0.000       0.000       0.000       0.000       0.000       0.000       51.28    
        57.00       61.16       61.37       60.50       59.86       58.14       63.00       63.47       65.00       61.37    
        66.25       68.95       70.80       78.07       85.38       83.87       86.25       101.3       0.000       0.000    
        0.000       0.000       0.000       0.000       0.000       0.000       0.000       0.000       0.000       0.000    
        0.000       0.000    
  45    0.000       0.000       0.000       0.000       0.000       0.000       0.000       0.000       0.000       0.000    
        0.000       0.000       0.000       0.000       0.000       0.000       0.000       0.000       0.000       0.000    
        61.71       59.59       62.97       61.59       62.40       69.36       67.96       65.46       68.11       69.12    
        73.10       70.88       72.37       75.93       86.80       86.68       78.89       95.34       0.000       0.000    
        0.000       0.000       0.000       0.000       0.000       0.000       0.000       0.000       0.000       0.000    
        0.000       0.000    
  46    0.000       0.000       0.000       0.000       0.000       0.000       0.000       0.000       0.000       0.000    
        0.000       0.000       0.000       0.000       0.000       0.000       0.000       0.000       0.000       0.000    
        65.02       61.95       63.59       61.13       67.64       69.80       65.17       72.21       73.60       73.10    
        71.95       77.20       77.07       81.83       83.07       85.31       84.27       90.93       0.000       0.000    
        0.000       0.000       0.000       0.000       0.000       0.000       0.000       0.000       0.000       0.000    
        0.000       0.000    
  47    0.000       0.000       0.000       0.000       0.000       0.000       0.000       0.000       0.000       0.000    
        0.000       0.000       0.000       0.000       0.000       0.000       0.000       0.000       0.000       0.000    
        0.000       61.14       64.60       64.15       65.00       68.41       68.75       72.38       72.68       76.87    
        79.07       80.84       76.17       81.55       81.20       91.56       86.52       86.60       0.000       0.000    
        0.000       0.000       0.000       0.000       0.000       0.000       0.000       0.000       0.000       0.000    
        0.000       0.000    
  48    0.000       0.000       0.000       0.000       0.000       0.000       0.000       0.000       0.000       0.000    
        0.000       0.000       0.000       0.000       0.000       0.000       0.000       0.000       0.000       0.000    
        0.000       63.24       65.63       66.38       69.20       70.25       71.77       77.67       74.84       72.15    
        79.09       81.24       84.07       87.07       83.28       89.42       94.05       86.93       0.000       0.000    
        0.000       0.000       0.000       0.000       0.000       0.000       0.000       0.000       0.000       0.000    
        0.000       0.000    
  49    0.000       0.000       0.000       0.000       0.000       0.000       0.000       0.000       0.000       0.000    
        0.000       0.000       0.000       0.000       0.000       0.000       0.000       0.000       0.000       0.000    
        0.000       0.000       62.56       69.32       71.90       73.04       73.56       81.39       80.75       81.95    
        78.49       80.12       82.45       85.84       85.65       76.88       90.00       90.22       117.4       0.000    
        0.000       0.000       0.000       0.000       0.000       0.000       0.000       0.000       0.000       0.000    
        0.000       0.000    
  50    0.000       0.000       0.000       0.000       0.000       0.000       0.000       0.000       0.000       0.000    
        0.000       0.000       0.000       0.000       0.000       0.000       0.000       0.000       0.000       0.000    
        0.000       0.000       0.000       68.30       70.98       72.24       78.34       81.47       81.90       77.39    
        81.10       91.42       95.11       92.93       84.57       81.15       94.40       96.82       108.5       0.000    
        0.000       0.000       0.000       0.000       0.000       0.000       0.000       0.000       0.000       0.000    
        0.000       0.000    
  51    0.000       0.000       0.000       0.000       0.000       0.000       0.000       0.000       0.000       0.000    
        0.000       0.000       0.000       0.000       0.000       0.000       0.000       0.000       0.000       0.000    
        0.000       0.000       0.000       0.000       72.61       73.84       76.85       84.07       85.27       81.44    
        85.50       90.32       96.46       100.1       89.17       91.20       104.9       104.7       110.3       0.000    
        0.000       0.000       0.000       0.000       0.000       0.000       0.000       0.000       0.000       0.000    
        0.000       0.000    
  52    0.000       0.000       0.000       0.000       0.000       0.000       0.000       0.000       0.000       0.000    
        0.000       0.000       0.000       0.000       0.000       0.000       0.000       0.000       0.000       0.000    
        0.000       0.000       0.000       0.000       0.000       74.49       79.02       0.000       83.24       88.43    
        90.41       82.00       89.49       83.41       91.71       89.87       98.68       103.6       110.1       0.000    
        0.000       0.000       0.000       0.000       0.000       0.000       0.000       0.000       0.000       0.000    
        0.000       0.000    
  53    0.000       0.000       0.000       0.000       0.000       0.000       0.000       0.000       0.000       0.000    
        0.000       0.000       0.000       0.000       0.000       0.000       0.000       0.000       0.000       0.000    
        0.000       0.000       0.000       0.000       0.000       0.000       0.000       0.000       0.000       87.12    
        86.82       94.66       97.26       97.93       98.56       94.69       101.4       103.0       112.3       115.0    
        0.000       0.000       0.000       0.000       0.000       0.000       0.000       0.000       0.000       0.000    
        0.000       0.000    
  54    0.000       0.000       0.000       0.000       0.000       0.000       0.000       0.000       0.000       0.000    
        0.000       0.000       0.000       0.000       0.000       0.000       0.000       0.000       0.000       0.000    
        0.000       0.000       0.000       0.000       0.000       0.000       0.000       0.000       0.000       86.78    
        92.40       96.22       103.9       112.8       118.7       114.2       113.2       114.6       112.8       115.9    
        0.000       0.000       0.000       0.000       0.000       0.000       0.000       0.000       0.000       0.000    
        0.000       0.000    
  55    0.000       0.000       0.000       0.000       0.000       0.000       0.000       0.000       0.000       0.000    
        0.000       0.000       0.000       0.000       0.000       0.000       0.000       0.000       0.000       0.000    
        0.000       0.000       0.000       0.000       0.000       0.000       0.000       0.000       0.000       115.0    
        101.5       102.6       106.4       113.0       120.1       116.0       115.4       112.6       113.7       111.2    
        117.6       0.000       0.000       0.000       0.000       0.000       0.000       0.000       0.000       0.000    
        0.000       0.000    
  56    0.000       0.000       0.000       0.000       0.000       0.000       0.000       0.000       0.000       0.000    
        0.000       0.000       0.000       0.000       0.000       0.000       0.000       0.000       0.000       0.000    
        0.000       0.000       0.000       0.000       0.000       0.000       0.000       0.000       0.000       131.8    
        108.1       108.5       108.3       112.2       117.5       118.8       114.7       114.9       114.1       116.0    
        121.3       129.9       0.000       0.000       0.000       0.000       0.000       0.000       0.000       0.000    
        0.000       0.000    
  57    0.000       0.000       0.000       0.000       0.000       0.000       0.000       0.000       0.000       0.000    
        0.000       0.000       0.000       0.000       0.000       0.000       0.000       0.000       0.000       0.000    
        0.000       0.000       0.000       0.000       0.000       0.000       0.000       0.000       0.000       0.000    
        112.4       111.3       112.0       119.7       126.8       123.7       113.0       115.9       116.0       117.9    
        125.2       118.5       127.5       0.000       0.000       0.000       0.000       0.000       0.000       0.000    
        0.000       0.000    
  58    0.000       0.000       0.000       0.000       0.000       0.000       0.000       0.000       0.000       0.000    
        0.000       0.000       0.000       0.000       0.000       0.000       0.000       0.000       0.000       0.000    
        0.000       0.000       0.000       0.000       0.000       0.000       0.000       0.000       0.000       0.000    
        112.9       115.8       121.1       127.8       123.4       122.2       115.1       112.2       118.3       117.1    
        126.8       121.9       128.5       140.8       0.000       0.000       0.000       0.000       0.000       0.000    
        0.000       0.000    
  59    0.000       0.000       0.000       0.000       0.000       0.000       0.000       0.000       0.000       0.000    
        0.000       0.000       0.000       0.000       0.000       0.000       0.000       0.000       0.000       0.000    
        0.000       0.000       0.000       0.000       0.000       0.000       0.000       0.000       0.000       0.000    
        0.000       117.5       117.0       116.6       116.6       122.6       118.9       122.1       121.0       115.4    
        126.0       124.8       131.6       131.9       143.3       0.000       0.000       0.000       0.000       0.000    
        0.000       0.000    
  60    0.000       0.000       0.000       0.000       0.000       0.000       0.000       0.000       0.000       0.000    
        0.000       0.000       0.000       0.000       0.000       0.000       0.000       0.000       0.000       0.000    
        0.000       0.000       0.000       0.000       0.000       0.000       0.000       0.000       0.000       0.000    
        0.000       117.0       117.0       119.4       120.0       122.5       123.8       125.1       118.7       120.3    
        124.6       127.0       133.5       134.8       136.5       0.000       0.000       0.000       0.000       0.000    
        0.000       0.000    
  61    0.000       0.000       0.000       0.000       0.000       0.000       0.000       0.000       0.000       0.000    
        0.000       0.000       0.000       0.000       0.000       0.000       0.000       0.000       0.000       0.000    
        0.000       0.000       0.000       0.000       0.000       0.000       0.000       0.000       0.000       0.000    
        0.000       0.000       116.1       116.3       119.2       123.9       122.0       121.6       126.6       121.8    
        124.2       129.4       134.3       135.8       137.0       142.1       0.000       0.000       0.000       0.000    
        0.000       0.000    
  62    0.000       0.000       0.000       0.000       0.000       0.000       0.000       0.000       0.000       0.000    
        0.000       0.000       0.000       0.000       0.000       0.000       0.000       0.000       0.000       0.000    
        0.000       0.000       0.000       0.000       0.000       0.000       0.000       0.000       0.000       0.000    
        0.000       0.000       119.3       120.9       121.9       122.7       123.5       126.2       128.0       134.8    
        134.0       129.8       134.0       133.7       136.7       142.9       0.000       0.000       0.000       0.000    
        0.000       0.000    
  63    0.000       0.000       0.000       0.000       0.000       0.000       0.000       0.000       0.000       0.000    
        0.000       0.000       0.000       0.000       0.000       0.000       0.000       0.000       0.000       0.000    
        0.000       0.000       0.000       0.000       0.000       0.000       0.000       0.000       0.000       0.000    
        0.000       0.000       0.000       125.9       122.7       124.9       125.5       126.8       131.0       139.6    
        136.5       137.3       134.0       139.5       138.2       141.2       0.000       0.000       0.000       0.000    
        0.000       0.000    
  64    0.000       0.000       0.000       0.000       0.000       0.000       0.000       0.000       0.000       0.000    
        0.000       0.000       0.000       0.000       0.000       0.000       0.000       0.000       0.000       0.000    
        0.000       0.000       0.000       0.000       0.000       0.000       0.000       0.000       0.000       0.000    
        0.000       0.000       0.000       0.000       130.6       125.6       129.4       127.2       131.7       135.5    
        133.2       137.7       137.4       138.0       145.1       146.8       162.5       0.000       0.000       0.000    
        0.000       0.000    
  65    0.000       0.000       0.000       0.000       0.000       0.000       0.000       0.000       0.000       0.000    
        0.000       0.000       0.000       0.000       0.000       0.000       0.000       0.000       0.000       0.000    
        0.000       0.000       0.000       0.000       0.000       0.000       0.000       0.000       0.000       0.000    
        0.000       0.000       0.000       0.000       0.000       125.1       134.8       135.5       137.6       137.3    
        139.8       143.2       140.4       142.5       143.5       145.8       0.000       0.000       0.000       0.000    
        0.000       0.000    
  66    0.000       0.000       0.000       0.000       0.000       0.000       0.000       0.000       0.000       0.000    
        0.000       0.000       0.000       0.000       0.000       0.000       0.000       0.000       0.000       0.000    
        0.000       0.000       0.000       0.000       0.000       0.000       0.000       0.000       0.000       0.000    
        0.000       0.000       0.000       0.000       0.000       0.000       0.000       139.5       139.0       136.3    
        142.0       145.2       144.0       146.7       144.9       146.9       0.000       0.000       0.000       0.000    
        0.000       0.000    
  67    0.000       0.000       0.000       0.000       0.000       0.000       0.000       0.000       0.000       0.000    
        0.000       0.000       0.000       0.000       0.000       0.000       0.000       0.000       0.000       0.000    
        0.000       0.000       0.000       0.000       0.000       0.000       0.000       0.000       0.000       0.000    
        0.000       0.000       0.000       0.000       0.000       0.000       0.000       0.000       0.000       143.4    
        147.5       147.9       144.3       146.9       147.8       0.000       0.000       0.000       0.000       0.000    
        0.000       0.000    
  68    0.000       0.000       0.000       0.000       0.000       0.000       0.000       0.000       0.000       0.000    
        0.000       0.000       0.000       0.000       0.000       0.000       0.000       0.000       0.000       0.000    
        0.000       0.000       0.000       0.000       0.000       0.000       0.000       0.000       0.000       0.000    
        0.000       0.000       0.000       0.000       0.000       0.000       0.000       0.000       0.000       0.000    
        0.000       148.1       150.9       0.000       0.000       0.000       0.000       0.000       0.000       0.000    
        0.000       0.000    



            EVAPOTRANSPIRATION RATE
 READING ON UNIT   25 WITH FORMAT: (FREE)              

            1           2           3           4           5           6           7           8           9          10
           11          12          13          14          15          16          17          18          19          20
           21          22          23          24          25          26          27          28          29          30
           31          32          33          34          35          36          37          38          39          40
           41          42          43          44          45          46          47          48          49          50
           51          52
 ........................................................................................................................
   1    0.000       0.000       0.000       0.000       0.000       0.000       0.000       0.000       0.000       0.000    
        0.000       0.000       0.000       0.000       0.000       0.000       0.000       0.000       0.000       0.000    
       3.0000E-08  3.0000E-08  3.0000E-08  3.0000E-08  3.0000E-08  3.0000E-08  3.0000E-08  3.0000E-08  3.0000E-08   0.000    
        0.000       0.000       0.000       0.000       0.000       0.000       0.000       0.000       0.000       0.000    
        0.000       0.000       0.000       0.000       0.000       0.000       0.000       0.000       0.000       0.000    
        0.000       0.000    
   2    0.000       0.000       0.000       0.000       0.000       0.000       0.000       0.000       0.000       0.000    
        0.000       0.000       0.000       0.000       0.000       0.000       0.000       0.000       0.000      3.0000E-08
       3.0000E-08  3.0000E-08  3.0000E-08  3.0000E-08  3.0000E-08  3.0000E-08  3.0000E-08  3.0000E-08  3.0000E-08  3.0000E-08
       3.0000E-08   0.000       0.000       0.000       0.000       0.000       0.000       0.000       0.000       0.000    
        0.000       0.000       0.000       0.000       0.000       0.000       0.000       0.000       0.000       0.000    
        0.000       0.000    
   3    0.000       0.000       0.000       0.000       0.000       0.000       0.000       0.000       0.000       0.000    
        0.000       0.000       0.000       0.000       0.000       0.000       0.000      3.0000E-08  3.0000E-08  3.0000E-08
       3.0000E-08  3.0000E-08  3.0000E-08  3.0000E-08  3.0000E-08  3.0000E-08  3.0000E-08  3.0000E-08  3.0000E-08  3.0000E-08
       3.0000E-08  3.0000E-08  3.0000E-08   0.000       0.000       0.000       0.000       0.000       0.000       0.000    
        0.000       0.000       0.000       0.000       0.000       0.000       0.000       0.000       0.000       0.000    
        0.000       0.000    
   4    0.000       0.000       0.000       0.000       0.000       0.000       0.000       0.000       0.000       0.000    
       3.0000E-08  3.0000E-08  3.0000E-08  3.0000E-08  3.0000E-08  3.0000E-08  3.0000E-08  3.0000E-08  3.0000E-08  3.0000E-08
       3.0000E-08  3.0000E-08  3.0000E-08  3.0000E-08  3.0000E-08  3.0000E-08  3.0000E-08  3.0000E-08  3.0000E-08  3.0000E-08
       3.0000E-08  3.0000E-08  3.0000E-08  3.0000E-08  3.0000E-08   0.000       0.000       0.000       0.000       0.000    
        0.000       0.000       0.000       0.000       0.000       0.000       0.000       0.000       0.000       0.000    
        0.000       0.000    
   5    0.000       0.000       0.000       0.000       0.000       0.000       0.000      3.0000E-08  3.0000E-08  3.0000E-08
       3.0000E-08  3.0000E-08  3.0000E-08  3.0000E-08  3.0000E-08  3.0000E-08  3.0000E-08  3.0000E-08  3.0000E-08  3.0000E-08
       3.0000E-08  3.0000E-08  3.0000E-08  3.0000E-08  3.0000E-08  3.0000E-08  3.0000E-08  3.0000E-08  3.0000E-08  3.0000E-08
       3.0000E-08  3.0000E-08  3.0000E-08  3.0000E-08  3.0000E-08  3.0000E-08   0.000       0.000       0.000       0.000    
        0.000       0.000       0.000       0.000       0.000       0.000       0.000       0.000       0.000       0.000    
        0.000       0.000    
   6    0.000       0.000       0.000       0.000       0.000       0.000       0.000      3.0000E-08  3.0000E-08  3.0000E-08
       3.0000E-08  3.0000E-08  3.0000E-08  3.0000E-08  3.0000E-08  3.0000E-08  3.0000E-08  3.0000E-08  3.0000E-08  3.0000E-08
       3.0000E-08  3.0000E-08  3.0000E-08  3.0000E-08  3.0000E-08  3.0000E-08  3.0000E-08  3.0000E-08  3.0000E-08  3.0000E-08
       3.0000E-08  3.0000E-08  3.0000E-08  3.0000E-08  3.0000E-08  3.0000E-08   0.000       0.000       0.000       0.000    
        0.000       0.000       0.000       0.000       0.000       0.000       0.000       0.000       0.000       0.000    
        0.000       0.000    
   7    0.000       0.000       0.000       0.000       0.000       0.000       0.000      3.0000E-08  3.0000E-08  3.0000E-08
       3.0000E-08  3.0000E-08  3.0000E-08  3.0000E-08  3.0000E-08  3.0000E-08  3.0000E-08  3.0000E-08  3.0000E-08  3.0000E-08
       3.0000E-08  3.0000E-08  3.0000E-08  3.0000E-08  3.0000E-08  3.0000E-08  3.0000E-08  3.0000E-08  3.0000E-08  3.0000E-08
       3.0000E-08  3.0000E-08  3.0000E-08  3.0000E-08  3.0000E-08  3.0000E-08   0.000       0.000       0.000       0.000    
        0.000       0.000       0.000       0.000       0.000       0.000       0.000       0.000       0.000       0.000    
        0.000       0.000    
   8    0.000       0.000       0.000       0.000       0.000       0.000       0.000      3.0000E-08  3.0000E-08  3.0000E-08
       3.0000E-08  3.0000E-08  3.0000E-08  3.0000E-08  3.0000E-08  3.0000E-08  3.0000E-08  3.0000E-08  3.0000E-08  3.0000E-08
       3.0000E-08  3.0000E-08  3.0000E-08  3.0000E-08  3.0000E-08  3.0000E-08  3.0000E-08  3.0000E-08  3.0000E-08  3.0000E-08
       3.0000E-08  3.0000E-08  3.0000E-08  3.0000E-08  3.0000E-08  3.0000E-08   0.000       0.000       0.000       0.000    
        0.000       0.000       0.000       0.000       0.000       0.000       0.000       0.000       0.000       0.000    
        0.000       0.000    
   9    0.000       0.000       0.000       0.000       0.000       0.000       0.000      3.0000E-08  3.0000E-08  3.0000E-08
       3.0000E-08  3.0000E-08  3.0000E-08  3.0000E-08  3.0000E-08  3.0000E-08  3.0000E-08  3.0000E-08  3.0000E-08  3.0000E-08
       3.0000E-08  3.0000E-08  3.0000E-08  3.0000E-08  3.0000E-08  3.0000E-08  3.0000E-08  3.0000E-08  3.0000E-08  3.0000E-08
       3.0000E-08  3.0000E-08  3.0000E-08  3.0000E-08  3.0000E-08   0.000       0.000       0.000       0.000       0.000    
        0.000       0.000       0.000       0.000       0.000       0.000       0.000       0.000       0.000       0.000    
        0.000       0.000    
  10    0.000       0.000       0.000       0.000       0.000       0.000       0.000      3.0000E-08  3.0000E-08  3.0000E-08
       3.0000E-08  3.0000E-08  3.0000E-08  3.0000E-08  3.0000E-08  3.0000E-08  3.0000E-08  3.0000E-08  3.0000E-08  3.0000E-08
       3.0000E-08  3.0000E-08  3.0000E-08  3.0000E-08  3.0000E-08  3.0000E-08  3.0000E-08  3.0000E-08  3.0000E-08  3.0000E-08
       3.0000E-08  3.0000E-08  3.0000E-08  3.0000E-08  3.0000E-08   0.000       0.000       0.000       0.000       0.000    
        0.000       0.000       0.000       0.000       0.000       0.000       0.000       0.000       0.000       0.000    
        0.000       0.000    
  11    0.000       0.000       0.000       0.000       0.000       0.000       0.000      3.0000E-08  3.0000E-08  3.0000E-08
       3.0000E-08  3.0000E-08  3.0000E-08  3.0000E-08  3.0000E-08  3.0000E-08  3.0000E-08  3.0000E-08  3.0000E-08  3.0000E-08
       3.0000E-08  3.0000E-08  3.0000E-08  3.0000E-08  3.0000E-08  3.0000E-08  3.0000E-08  3.0000E-08  3.0000E-08  3.0000E-08
       3.0000E-08  3.0000E-08  3.0000E-08  3.0000E-08  3.0000E-08   0.000       0.000       0.000       0.000       0.000    
        0.000       0.000       0.000       0.000       0.000       0.000       0.000       0.000       0.000       0.000    
        0.000       0.000    
  12    0.000       0.000       0.000       0.000       0.000       0.000       0.000      3.0000E-08  3.0000E-08  3.0000E-08
       3.0000E-08  3.0000E-08  3.0000E-08  3.0000E-08  3.0000E-08  3.0000E-08  3.0000E-08  3.0000E-08  3.0000E-08  3.0000E-08
       3.0000E-08  3.0000E-08  3.0000E-08  3.0000E-08  3.0000E-08  3.0000E-08  3.0000E-08  3.0000E-08  3.0000E-08  3.0000E-08
       3.0000E-08  3.0000E-08  3.0000E-08  3.0000E-08  3.0000E-08   0.000       0.000       0.000       0.000       0.000    
        0.000       0.000       0.000       0.000       0.000       0.000       0.000       0.000       0.000       0.000    
        0.000       0.000    
  13    0.000       0.000       0.000       0.000       0.000       0.000       0.000      3.0000E-08  3.0000E-08  3.0000E-08
       3.0000E-08  3.0000E-08  3.0000E-08  3.0000E-08  3.0000E-08  3.0000E-08  3.0000E-08  3.0000E-08  3.0000E-08  3.0000E-08
       3.0000E-08  3.0000E-08  3.0000E-08  3.0000E-08  3.0000E-08  3.0000E-08  3.0000E-08  3.0000E-08  3.0000E-08  3.0000E-08
       3.0000E-08  3.0000E-08  3.0000E-08  3.0000E-08  3.0000E-08   0.000       0.000       0.000       0.000       0.000    
        0.000       0.000       0.000       0.000       0.000       0.000       0.000       0.000       0.000       0.000    
        0.000       0.000    
  14    0.000       0.000       0.000       0.000       0.000       0.000       0.000      3.0000E-08  3.0000E-08  3.0000E-08
       3.0000E-08  3.0000E-08  3.0000E-08  3.0000E-08  3.0000E-08  3.0000E-08  3.0000E-08  3.0000E-08  3.0000E-08  3.0000E-08
       3.0000E-08  3.0000E-08  3.0000E-08  3.0000E-08  3.0000E-08  3.0000E-08  3.0000E-08  3.0000E-08  3.0000E-08  3.0000E-08
       3.0000E-08  3.0000E-08  3.0000E-08  3.0000E-08  3.0000E-08   0.000       0.000       0.000       0.000       0.000    
        0.000       0.000       0.000       0.000       0.000       0.000       0.000       0.000       0.000       0.000    
        0.000       0.000    
  15    0.000       0.000       0.000       0.000       0.000       0.000       0.000      3.0000E-08  3.0000E-08  3.0000E-08
       3.0000E-08  3.0000E-08  3.0000E-08  3.0000E-08  3.0000E-08  3.0000E-08  3.0000E-08  3.0000E-08  3.0000E-08  3.0000E-08
       3.0000E-08  3.0000E-08  3.0000E-08  3.0000E-08  3.0000E-08  3.0000E-08  3.0000E-08  3.0000E-08  3.0000E-08  3.0000E-08
       3.0000E-08  3.0000E-08  3.0000E-08  3.0000E-08  3.0000E-08  3.0000E-08   0.000       0.000       0.000       0.000    
        0.000       0.000       0.000       0.000       0.000       0.000       0.000       0.000       0.000       0.000    
        0.000       0.000    
  16    0.000       0.000       0.000       0.000       0.000       0.000       0.000      3.0000E-08  3.0000E-08  3.0000E-08
       3.0000E-08  3.0000E-08  3.0000E-08  3.0000E-08  3.0000E-08  3.0000E-08  3.0000E-08  3.0000E-08  3.0000E-08  3.0000E-08
       3.0000E-08  3.0000E-08  3.0000E-08  3.0000E-08  3.0000E-08  3.0000E-08  3.0000E-08  3.0000E-08  3.0000E-08  3.0000E-08
       3.0000E-08  3.0000E-08  3.0000E-08  3.0000E-08  3.0000E-08  3.0000E-08  3.0000E-08   0.000       0.000       0.000    
        0.000       0.000       0.000       0.000       0.000       0.000       0.000       0.000       0.000       0.000    
        0.000       0.000    
  17    0.000       0.000       0.000       0.000       0.000       0.000       0.000      3.0000E-08  3.0000E-08  3.0000E-08
       3.0000E-08  3.0000E-08  3.0000E-08  3.0000E-08  3.0000E-08  3.0000E-08  3.0000E-08  3.0000E-08  3.0000E-08  3.0000E-08
       3.0000E-08  3.0000E-08  3.0000E-08  3.0000E-08  3.0000E-08  3.0000E-08  3.0000E-08  3.0000E-08  3.0000E-08  3.0000E-08
       3.0000E-08  3.0000E-08  3.0000E-08  3.0000E-08  3.0000E-08  3.0000E-08  3.0000E-08  3.0000E-08  3.0000E-08  3.0000E-08
        0.000       0.000       0.000       0.000       0.000       0.000       0.000       0.000       0.000       0.000    
        0.000       0.000    
  18    0.000       0.000       0.000       0.000       0.000       0.000       0.000      3.0000E-08  3.0000E-08  3.0000E-08
       3.0000E-08  3.0000E-08  3.0000E-08  3.0000E-08  3.0000E-08  3.0000E-08  3.0000E-08  3.0000E-08  3.0000E-08  3.0000E-08
       3.0000E-08  3.0000E-08  3.0000E-08  3.0000E-08  3.0000E-08  3.0000E-08  3.0000E-08  3.0000E-08  3.0000E-08  3.0000E-08
       3.0000E-08  3.0000E-08  3.0000E-08  3.0000E-08  3.0000E-08  3.0000E-08  3.0000E-08  3.0000E-08  3.0000E-08  3.0000E-08
       3.0000E-08  3.0000E-08  3.0000E-08  3.0000E-08   0.000       0.000       0.000       0.000       0.000       0.000    
        0.000       0.000    
  19    0.000       0.000       0.000       0.000       0.000       0.000       0.000      3.0000E-08  3.0000E-08  3.0000E-08
       3.0000E-08  3.0000E-08  3.0000E-08  3.0000E-08  3.0000E-08  3.0000E-08  3.0000E-08  3.0000E-08  3.0000E-08  3.0000E-08
       3.0000E-08  3.0000E-08  3.0000E-08  3.0000E-08  3.0000E-08  3.0000E-08  3.0000E-08  3.0000E-08  3.0000E-08  3.0000E-08
       3.0000E-08  3.0000E-08  3.0000E-08  3.0000E-08  3.0000E-08  3.0000E-08  3.0000E-08  3.0000E-08  3.0000E-08  3.0000E-08
       3.0000E-08  3.0000E-08  3.0000E-08  3.0000E-08  3.0000E-08  3.0000E-08  3.0000E-08  3.0000E-08  3.0000E-08  3.0000E-08
       3.0000E-08  3.0000E-08
  20    0.000       0.000       0.000       0.000       0.000       0.000       0.000      3.0000E-08  3.0000E-08  3.0000E-08
       3.0000E-08  3.0000E-08  3.0000E-08  3.0000E-08  3.0000E-08  3.0000E-08  3.0000E-08  3.0000E-08  3.0000E-08  3.0000E-08
       3.0000E-08  3.0000E-08  3.0000E-08  3.0000E-08  3.0000E-08  3.0000E-08  3.0000E-08  3.0000E-08  3.0000E-08  3.0000E-08
       3.0000E-08  3.0000E-08  3.0000E-08  3.0000E-08  3.0000E-08  3.0000E-08  3.0000E-08  3.0000E-08  3.0000E-08  3.0000E-08
       3.0000E-08  3.0000E-08  3.0000E-08  3.0000E-08  3.0000E-08  3.0000E-08  3.0000E-08  3.0000E-08  3.0000E-08  3.0000E-08
       3.0000E-08  3.0000E-08
  21    0.000       0.000       0.000       0.000       0.000       0.000       0.000      3.0000E-08  3.0000E-08  3.0000E-08
       3.0000E-08  3.0000E-08  3.0000E-08  3.0000E-08  3.0000E-08  3.0000E-08  3.0000E-08  3.0000E-08  3.0000E-08  3.0000E-08
       3.0000E-08  3.0000E-08  3.0000E-08  3.0000E-08  3.0000E-08  3.0000E-08  3.0000E-08  3.0000E-08  3.0000E-08  3.0000E-08
       3.0000E-08  3.0000E-08  3.0000E-08  3.0000E-08  3.0000E-08  3.0000E-08  3.0000E-08  3.0000E-08  3.0000E-08  3.0000E-08
       3.0000E-08  3.0000E-08  3.0000E-08  3.0000E-08  3.0000E-08  3.0000E-08  3.0000E-08  3.0000E-08  3.0000E-08  3.0000E-08
       3.0000E-08   0.000    
  22    0.000       0.000       0.000       0.000       0.000       0.000       0.000      3.0000E-08  3.0000E-08  3.0000E-08
       3.0000E-08  3.0000E-08  3.0000E-08  3.0000E-08  3.0000E-08  3.0000E-08  3.0000E-08  3.0000E-08  3.0000E-08  3.0000E-08
       3.0000E-08  3.0000E-08  3.0000E-08  3.0000E-08  3.0000E-08  3.0000E-08  3.0000E-08  3.0000E-08  3.0000E-08  3.0000E-08
       3.0000E-08  3.0000E-08  3.0000E-08  3.0000E-08  3.0000E-08  3.0000E-08   0.000      3.0000E-08  3.0000E-08  3.0000E-08
       3.0000E-08  3.0000E-08  3.0000E-08  3.0000E-08  3.0000E-08  3.0000E-08  3.0000E-08  3.0000E-08  3.0000E-08   0.000    
        0.000       0.000    
  23    0.000       0.000       0.000       0.000       0.000       0.000       0.000      3.0000E-08  3.0000E-08  3.0000E-08
       3.0000E-08  3.0000E-08  3.0000E-08  3.0000E-08  3.0000E-08  3.0000E-08  3.0000E-08  3.0000E-08  3.0000E-08  3.0000E-08
       3.0000E-08  3.0000E-08  3.0000E-08  3.0000E-08  3.0000E-08  3.0000E-08  3.0000E-08  3.0000E-08  3.0000E-08  3.0000E-08
       3.0000E-08  3.0000E-08  3.0000E-08  3.0000E-08  3.0000E-08  3.0000E-08  3.0000E-08   0.000       0.000       0.000    
       3.0000E-08  3.0000E-08  3.0000E-08  3.0000E-08  3.0000E-08  3.0000E-08  3.0000E-08  3.0000E-08   0.000       0.000    
        0.000       0.000    
  24    0.000       0.000       0.000       0.000       0.000       0.000       0.000      3.0000E-08  3.0000E-08  3.0000E-08
       3.0000E-08  3.0000E-08  3.0000E-08  3.0000E-08  3.0000E-08  3.0000E-08  3.0000E-08  3.0000E-08  3.0000E-08  3.0000E-08
       3.0000E-08  3.0000E-08  3.0000E-08  3.0000E-08  3.0000E-08  3.0000E-08  3.0000E-08  3.0000E-08  3.0000E-08  3.0000E-08
       3.0000E-08  3.0000E-08  3.0000E-08  3.0000E-08  3.0000E-08  3.0000E-08  3.0000E-08   0.000       0.000       0.000    
        0.000       0.000       0.000       0.000       0.000       0.000      3.0000E-08   0.000       0.000       0.000    
        0.000       0.000    
  25    0.000       0.000       0.000       0.000       0.000       0.000       0.000      3.0000E-08  3.0000E-08  3.0000E-08
       3.0000E-08  3.0000E-08  3.0000E-08  3.0000E-08  3.0000E-08  3.0000E-08  3.0000E-08  3.0000E-08  3.0000E-08  3.0000E-08
       3.0000E-08  3.0000E-08  3.0000E-08  3.0000E-08  3.0000E-08  3.0000E-08  3.0000E-08  3.0000E-08  3.0000E-08  3.0000E-08
       3.0000E-08  3.0000E-08  3.0000E-08  3.0000E-08  3.0000E-08  3.0000E-08  3.0000E-08   0.000       0.000       0.000    
        0.000       0.000       0.000       0.000       0.000       0.000       0.000       0.000       0.000       0.000    
        0.000       0.000    
  26    0.000       0.000       0.000       0.000       0.000       0.000       0.000      3.0000E-08  3.0000E-08  3.0000E-08
       3.0000E-08  3.0000E-08  3.0000E-08  3.0000E-08  3.0000E-08  3.0000E-08  3.0000E-08  3.0000E-08  3.0000E-08  3.0000E-08
       3.0000E-08  3.0000E-08  3.0000E-08  3.0000E-08  3.0000E-08  3.0000E-08  3.0000E-08  3.0000E-08  3.0000E-08  3.0000E-08
       3.0000E-08  3.0000E-08  3.0000E-08  3.0000E-08  3.0000E-08  3.0000E-08  3.0000E-08   0.000       0.000       0.000    
        0.000       0.000       0.000       0.000       0.000       0.000       0.000       0.000       0.000       0.000    
        0.000       0.000    
  27    0.000       0.000       0.000       0.000       0.000       0.000       0.000       0.000      3.0000E-08  3.0000E-08
       3.0000E-08  3.0000E-08  3.0000E-08  3.0000E-08  3.0000E-08  3.0000E-08  3.0000E-08  3.0000E-08  3.0000E-08  3.0000E-08
       3.0000E-08  3.0000E-08  3.0000E-08  3.0000E-08  3.0000E-08  3.0000E-08  3.0000E-08  3.0000E-08  3.0000E-08  3.0000E-08
       3.0000E-08  3.0000E-08  3.0000E-08  3.0000E-08  3.0000E-08  3.0000E-08  3.0000E-08   0.000       0.000       0.000    
        0.000       0.000       0.000       0.000       0.000       0.000       0.000       0.000       0.000       0.000    
        0.000       0.000    
  28    0.000       0.000       0.000       0.000       0.000       0.000       0.000       0.000      3.0000E-08  3.0000E-08
       3.0000E-08  3.0000E-08  3.0000E-08  3.0000E-08  3.0000E-08  3.0000E-08  3.0000E-08  3.0000E-08  3.0000E-08  3.0000E-08
       3.0000E-08  3.0000E-08  3.0000E-08  3.0000E-08  3.0000E-08  3.0000E-08  3.0000E-08  3.0000E-08  3.0000E-08  3.0000E-08
       3.0000E-08  3.0000E-08  3.0000E-08  3.0000E-08  3.0000E-08  3.0000E-08  3.0000E-08   0.000       0.000       0.000    
        0.000       0.000       0.000       0.000       0.000       0.000       0.000       0.000       0.000       0.000    
        0.000       0.000    
  29    0.000       0.000       0.000       0.000       0.000       0.000       0.000       0.000      3.0000E-08  3.0000E-08
       3.0000E-08  3.0000E-08  3.0000E-08  3.0000E-08  3.0000E-08  3.0000E-08  3.0000E-08  3.0000E-08  3.0000E-08  3.0000E-08
       3.0000E-08  3.0000E-08  3.0000E-08  3.0000E-08  3.0000E-08  3.0000E-08  3.0000E-08  3.0000E-08  3.0000E-08  3.0000E-08
       3.0000E-08  3.0000E-08  3.0000E-08  3.0000E-08  3.0000E-08  3.0000E-08  3.0000E-08   0.000       0.000       0.000    
        0.000       0.000       0.000       0.000       0.000       0.000       0.000       0.000       0.000       0.000    
        0.000       0.000    
  30    0.000       0.000       0.000       0.000       0.000       0.000       0.000       0.000      3.0000E-08  3.0000E-08
       3.0000E-08  3.0000E-08  3.0000E-08  3.0000E-08  3.0000E-08  3.0000E-08  3.0000E-08  3.0000E-08  3.0000E-08  3.0000E-08
       3.0000E-08  3.0000E-08  3.0000E-08  3.0000E-08  3.0000E-08  3.0000E-08  3.0000E-08  3.0000E-08  3.0000E-08  3.0000E-08
       3.0000E-08  3.0000E-08  3.0000E-08  3.0000E-08  3.0000E-08  3.0000E-08   0.000       0.000       0.000       0.000    
        0.000       0.000       0.000       0.000       0.000       0.000       0.000       0.000       0.000       0.000    
        0.000       0.000    
  31    0.000       0.000       0.000       0.000       0.000       0.000       0.000       0.000      3.0000E-08  3.0000E-08
       3.0000E-08  3.0000E-08  3.0000E-08  3.0000E-08  3.0000E-08  3.0000E-08  3.0000E-08  3.0000E-08  3.0000E-08  3.0000E-08
       3.0000E-08  3.0000E-08  3.0000E-08  3.0000E-08  3.0000E-08  3.0000E-08  3.0000E-08  3.0000E-08  3.0000E-08  3.0000E-08
       3.0000E-08  3.0000E-08  3.0000E-08  3.0000E-08  3.0000E-08  3.0000E-08   0.000       0.000       0.000       0.000    
        0.000       0.000       0.000       0.000       0.000       0.000       0.000       0.000       0.000       0.000    
        0.000       0.000    
  32    0.000       0.000       0.000       0.000       0.000       0.000       0.000       0.000      3.0000E-08  3.0000E-08
       3.0000E-08  3.0000E-08  3.0000E-08  3.0000E-08  3.0000E-08  3.0000E-08  3.0000E-08  3.0000E-08  3.0000E-08  3.0000E-08
       3.0000E-08  3.0000E-08  3.0000E-08  3.0000E-08  3.0000E-08  3.0000E-08  3.0000E-08  3.0000E-08  3.0000E-08  3.0000E-08
       3.0000E-08  3.0000E-08  3.0000E-08  3.0000E-08  3.0000E-08  3.0000E-08   0.000       0.000       0.000       0.000    
        0.000       0.000       0.000       0.000       0.000       0.000       0.000       0.000       0.000       0.000    
        0.000       0.000    
  33    0.000       0.000       0.000       0.000       0.000       0.000       0.000       0.000      3.0000E-08  3.0000E-08
       3.0000E-08  3.0000E-08  3.0000E-08  3.0000E-08  3.0000E-08  3.0000E-08  3.0000E-08  3.0000E-08  3.0000E-08  3.0000E-08
       3.0000E-08  3.0000E-08  3.0000E-08  3.0000E-08  3.0000E-08  3.0000E-08  3.0000E-08  3.0000E-08  3.0000E-08  3.0000E-08
       3.0000E-08  3.0000E-08  3.0000E-08  3.0000E-08  3.0000E-08  3.0000E-08   0.000       0.000       0.000       0.000    
        0.000       0.000       0.000       0.000       0.000       0.000       0.000       0.000       0.000       0.000    
        0.000       0.000    
  34    0.000       0.000       0.000       0.000       0.000       0.000       0.000       0.000       0.000      3.0000E-08
       3.0000E-08  3.0000E-08  3.0000E-08  3.0000E-08  3.0000E-08  3.0000E-08  3.0000E-08  3.0000E-08  3.0000E-08  3.0000E-08
       3.0000E-08  3.0000E-08  3.0000E-08  3.0000E-08  3.0000E-08  3.0000E-08  3.0000E-08  3.0000E-08  3.0000E-08  3.0000E-08
       3.0000E-08  3.0000E-08  3.0000E-08  3.0000E-08  3.0000E-08  3.0000E-08   0.000       0.000       0.000       0.000    
        0.000       0.000       0.000       0.000       0.000       0.000       0.000       0.000       0.000       0.000    
        0.000       0.000    
  35    0.000       0.000       0.000       0.000       0.000       0.000       0.000       0.000       0.000      3.0000E-08
       3.0000E-08  3.0000E-08  3.0000E-08  3.0000E-08  3.0000E-08  3.0000E-08  3.0000E-08  3.0000E-08  3.0000E-08  3.0000E-08
       3.0000E-08  3.0000E-08  3.0000E-08  3.0000E-08  3.0000E-08  3.0000E-08  3.0000E-08  3.0000E-08  3.0000E-08  3.0000E-08
       3.0000E-08  3.0000E-08  3.0000E-08  3.0000E-08  3.0000E-08  3.0000E-08   0.000       0.000       0.000       0.000    
        0.000       0.000       0.000       0.000       0.000       0.000       0.000       0.000       0.000       0.000    
        0.000       0.000    
  36    0.000       0.000       0.000       0.000       0.000       0.000       0.000       0.000       0.000       0.000    
       3.0000E-08  3.0000E-08  3.0000E-08  3.0000E-08  3.0000E-08  3.0000E-08  3.0000E-08  3.0000E-08  3.0000E-08  3.0000E-08
       3.0000E-08  3.0000E-08  3.0000E-08  3.0000E-08  3.0000E-08  3.0000E-08  3.0000E-08  3.0000E-08  3.0000E-08  3.0000E-08
       3.0000E-08  3.0000E-08  3.0000E-08  3.0000E-08  3.0000E-08  3.0000E-08   0.000       0.000       0.000       0.000    
        0.000       0.000       0.000       0.000       0.000       0.000       0.000       0.000       0.000       0.000    
        0.000       0.000    
  37    0.000       0.000       0.000       0.000       0.000       0.000       0.000       0.000       0.000       0.000    
       3.0000E-08  3.0000E-08  3.0000E-08  3.0000E-08  3.0000E-08  3.0000E-08  3.0000E-08  3.0000E-08  3.0000E-08  3.0000E-08
       3.0000E-08  3.0000E-08  3.0000E-08  3.0000E-08  3.0000E-08  3.0000E-08  3.0000E-08  3.0000E-08  3.0000E-08  3.0000E-08
       3.0000E-08  3.0000E-08  3.0000E-08  3.0000E-08  3.0000E-08  3.0000E-08   0.000       0.000       0.000       0.000    
        0.000       0.000       0.000       0.000       0.000       0.000       0.000       0.000       0.000       0.000    
        0.000       0.000    
  38    0.000       0.000       0.000       0.000       0.000       0.000       0.000       0.000       0.000       0.000    
        0.000       0.000       0.000      3.0000E-08  3.0000E-08  3.0000E-08  3.0000E-08  3.0000E-08  3.0000E-08  3.0000E-08
       3.0000E-08  3.0000E-08  3.0000E-08  3.0000E-08  3.0000E-08  3.0000E-08  3.0000E-08  3.0000E-08  3.0000E-08  3.0000E-08
       3.0000E-08  3.0000E-08  3.0000E-08  3.0000E-08  3.0000E-08  3.0000E-08  3.0000E-08   0.000       0.000       0.000    
        0.000       0.000       0.000       0.000       0.000       0.000       0.000       0.000       0.000       0.000    
        0.000       0.000    
  39    0.000       0.000       0.000       0.000       0.000       0.000       0.000       0.000       0.000       0.000    
        0.000       0.000       0.000       0.000       0.000       0.000      3.0000E-08  3.0000E-08  3.0000E-08  3.0000E-08
       3.0000E-08  3.0000E-08  3.0000E-08  3.0000E-08  3.0000E-08  3.0000E-08  3.0000E-08  3.0000E-08  3.0000E-08  3.0000E-08
       3.0000E-08  3.0000E-08  3.0000E-08  3.0000E-08  3.0000E-08  3.0000E-08  3.0000E-08   0.000       0.000       0.000    
        0.000       0.000       0.000       0.000       0.000       0.000       0.000       0.000       0.000       0.000    
        0.000       0.000    
  40    0.000       0.000       0.000       0.000       0.000       0.000       0.000       0.000       0.000       0.000    
        0.000       0.000       0.000       0.000       0.000       0.000       0.000      3.0000E-08  3.0000E-08  3.0000E-08
       3.0000E-08  3.0000E-08  3.0000E-08  3.0000E-08  3.0000E-08  3.0000E-08  3.0000E-08  3.0000E-08  3.0000E-08  3.0000E-08
       3.0000E-08  3.0000E-08  3.0000E-08  3.0000E-08  3.0000E-08  3.0000E-08  3.0000E-08   0.000       0.000       0.000    
        0.000       0.000       0.000       0.000       0.000       0.000       0.000       0.000       0.000       0.000    
        0.000       0.000    
  41    0.000       0.000       0.000       0.000       0.000       0.000       0.000       0.000       0.000       0.000    
        0.000       0.000       0.000       0.000       0.000       0.000       0.000       0.000      3.0000E-08  3.0000E-08
       3.0000E-08  3.0000E-08  3.0000E-08  3.0000E-08  3.0000E-08  3.0000E-08  3.0000E-08  3.0000E-08  3.0000E-08  3.0000E-08
       3.0000E-08  3.0000E-08  3.0000E-08  3.0000E-08  3.0000E-08  3.0000E-08  3.0000E-08   0.000       0.000       0.000    
        0.000       0.000       0.000       0.000       0.000       0.000       0.000       0.000       0.000       0.000    
        0.000       0.000    
  42    0.000       0.000       0.000       0.000       0.000       0.000       0.000       0.000       0.000       0.000    
        0.000       0.000       0.000       0.000       0.000       0.000       0.000       0.000      3.0000E-08  3.0000E-08
       3.0000E-08  3.0000E-08  3.0000E-08  3.0000E-08  3.0000E-08  3.0000E-08  3.0000E-08  3.0000E-08  3.0000E-08  3.0000E-08
       3.0000E-08  3.0000E-08  3.0000E-08  3.0000E-08  3.0000E-08  3.0000E-08  3.0000E-08   0.000       0.000       0.000    
        0.000       0.000       0.000       0.000       0.000       0.000       0.000       0.000       0.000       0.000    
        0.000       0.000    
  43    0.000       0.000       0.000       0.000       0.000       0.000       0.000       0.000       0.000       0.000    
        0.000       0.000       0.000       0.000       0.000       0.000       0.000       0.000       0.000      3.0000E-08
       3.0000E-08  3.0000E-08  3.0000E-08  3.0000E-08  3.0000E-08  3.0000E-08  3.0000E-08  3.0000E-08  3.0000E-08  3.0000E-08
       3.0000E-08  3.0000E-08  3.0000E-08  3.0000E-08  3.0000E-08  3.0000E-08  3.0000E-08  3.0000E-08   0.000       0.000    
        0.000       0.000       0.000       0.000       0.000       0.000       0.000       0.000       0.000       0.000    
        0.000       0.000    
  44    0.000       0.000       0.000       0.000       0.000       0.000       0.000       0.000       0.000       0.000    
        0.000       0.000       0.000       0.000       0.000       0.000       0.000       0.000       0.000      3.0000E-08
       3.0000E-08  3.0000E-08  3.0000E-08  3.0000E-08  3.0000E-08  3.0000E-08  3.0000E-08  3.0000E-08  3.0000E-08  3.0000E-08
       3.0000E-08  3.0000E-08  3.0000E-08  3.0000E-08  3.0000E-08  3.0000E-08  3.0000E-08  3.0000E-08   0.000       0.000    
        0.000       0.000       0.000       0.000       0.000       0.000       0.000       0.000       0.000       0.000    
        0.000       0.000    
  45    0.000       0.000       0.000       0.000       0.000       0.000       0.000       0.000       0.000       0.000    
        0.000       0.000       0.000       0.000       0.000       0.000       0.000       0.000       0.000       0.000    
       3.0000E-08  3.0000E-08  3.0000E-08  3.0000E-08  3.0000E-08  3.0000E-08  3.0000E-08  3.0000E-08  3.0000E-08  3.0000E-08
       3.0000E-08  3.0000E-08  3.0000E-08  3.0000E-08  3.0000E-08  3.0000E-08  3.0000E-08  3.0000E-08   0.000       0.000    
        0.000       0.000       0.000       0.000       0.000       0.000       0.000       0.000       0.000       0.000    
        0.000       0.000    
  46    0.000       0.000       0.000       0.000       0.000       0.000       0.000       0.000       0.000       0.000    
        0.000       0.000       0.000       0.000       0.000       0.000       0.000       0.000       0.000       0.000    
       3.0000E-08  3.0000E-08  3.0000E-08  3.0000E-08  3.0000E-08  3.0000E-08  3.0000E-08  3.0000E-08  3.0000E-08  3.0000E-08
       3.0000E-08  3.0000E-08  3.0000E-08  3.0000E-08  3.0000E-08  3.0000E-08  3.0000E-08  3.0000E-08   0.000       0.000    
        0.000       0.000       0.000       0.000       0.000       0.000       0.000       0.000       0.000       0.000    
        0.000       0.000    
  47    0.000       0.000       0.000       0.000       0.000       0.000       0.000       0.000       0.000       0.000    
        0.000       0.000       0.000       0.000       0.000       0.000       0.000       0.000       0.000       0.000    
        0.000      3.0000E-08  3.0000E-08  3.0000E-08  3.0000E-08  3.0000E-08  3.0000E-08  3.0000E-08  3.0000E-08  3.0000E-08
       3.0000E-08  3.0000E-08  3.0000E-08  3.0000E-08  3.0000E-08  3.0000E-08  3.0000E-08  3.0000E-08   0.000       0.000    
        0.000       0.000       0.000       0.000       0.000       0.000       0.000       0.000       0.000       0.000    
        0.000       0.000    
  48    0.000       0.000       0.000       0.000       0.000       0.000       0.000       0.000       0.000       0.000    
        0.000       0.000       0.000       0.000       0.000       0.000       0.000       0.000       0.000       0.000    
        0.000      3.0000E-08  3.0000E-08  3.0000E-08  3.0000E-08  3.0000E-08  3.0000E-08  3.0000E-08  3.0000E-08  3.0000E-08
       3.0000E-08  3.0000E-08  3.0000E-08  3.0000E-08  3.0000E-08  3.0000E-08  3.0000E-08  3.0000E-08   0.000       0.000    
        0.000       0.000       0.000       0.000       0.000       0.000       0.000       0.000       0.000       0.000    
        0.000       0.000    
  49    0.000       0.000       0.000       0.000       0.000       0.000       0.000       0.000       0.000       0.000    
        0.000       0.000       0.000       0.000       0.000       0.000       0.000       0.000       0.000       0.000    
        0.000       0.000      3.0000E-08  3.0000E-08  3.0000E-08  3.0000E-08  3.0000E-08  3.0000E-08  3.0000E-08  3.0000E-08
       3.0000E-08  3.0000E-08  3.0000E-08  3.0000E-08  3.0000E-08  3.0000E-08  3.0000E-08  3.0000E-08  3.0000E-08   0.000    
        0.000       0.000       0.000       0.000       0.000       0.000       0.000       0.000       0.000       0.000    
        0.000       0.000    
  50    0.000       0.000       0.000       0.000       0.000       0.000       0.000       0.000       0.000       0.000    
        0.000       0.000       0.000       0.000       0.000       0.000       0.000       0.000       0.000       0.000    
        0.000       0.000       0.000      3.0000E-08  3.0000E-08  3.0000E-08  3.0000E-08  3.0000E-08  3.0000E-08  3.0000E-08
       3.0000E-08  3.0000E-08  3.0000E-08  3.0000E-08  3.0000E-08  3.0000E-08  3.0000E-08  3.0000E-08  3.0000E-08   0.000    
        0.000       0.000       0.000       0.000       0.000       0.000       0.000       0.000       0.000       0.000    
        0.000       0.000    
  51    0.000       0.000       0.000       0.000       0.000       0.000       0.000       0.000       0.000       0.000    
        0.000       0.000       0.000       0.000       0.000       0.000       0.000       0.000       0.000       0.000    
        0.000       0.000       0.000       0.000      3.0000E-08  3.0000E-08  3.0000E-08  3.0000E-08  3.0000E-08  3.0000E-08
       3.0000E-08  3.0000E-08  3.0000E-08  3.0000E-08  3.0000E-08  3.0000E-08  3.0000E-08  3.0000E-08  3.0000E-08   0.000    
        0.000       0.000       0.000       0.000       0.000       0.000       0.000       0.000       0.000       0.000    
        0.000       0.000    
  52    0.000       0.000       0.000       0.000       0.000       0.000       0.000       0.000       0.000       0.000    
        0.000       0.000       0.000       0.000       0.000       0.000       0.000       0.000       0.000       0.000    
        0.000       0.000       0.000       0.000       0.000      3.0000E-08  3.0000E-08   0.000      3.0000E-08  3.0000E-08
       3.0000E-08  3.0000E-08  3.0000E-08  3.0000E-08  3.0000E-08  3.0000E-08  3.0000E-08  3.0000E-08  3.0000E-08   0.000    
        0.000       0.000       0.000       0.000       0.000       0.000       0.000       0.000       0.000       0.000    
        0.000       0.000    
  53    0.000       0.000       0.000       0.000       0.000       0.000       0.000       0.000       0.000       0.000    
        0.000       0.000       0.000       0.000       0.000       0.000       0.000       0.000       0.000       0.000    
        0.000       0.000       0.000       0.000       0.000       0.000       0.000       0.000       0.000      3.0000E-08
       3.0000E-08  3.0000E-08  3.0000E-08  3.0000E-08  3.0000E-08  3.0000E-08  3.0000E-08  3.0000E-08  3.0000E-08  3.0000E-08
        0.000       0.000       0.000       0.000       0.000       0.000       0.000       0.000       0.000       0.000    
        0.000       0.000    
  54    0.000       0.000       0.000       0.000       0.000       0.000       0.000       0.000       0.000       0.000    
        0.000       0.000       0.000       0.000       0.000       0.000       0.000       0.000       0.000       0.000    
        0.000       0.000       0.000       0.000       0.000       0.000       0.000       0.000       0.000      3.0000E-08
       3.0000E-08  3.0000E-08  3.0000E-08  3.0000E-08  3.0000E-08  3.0000E-08  3.0000E-08  3.0000E-08  3.0000E-08  3.0000E-08
        0.000       0.000       0.000       0.000       0.000       0.000       0.000       0.000       0.000       0.000    
        0.000       0.000    
  55    0.000       0.000       0.000       0.000       0.000       0.000       0.000       0.000       0.000       0.000    
        0.000       0.000       0.000       0.000       0.000       0.000       0.000       0.000       0.000       0.000    
        0.000       0.000       0.000       0.000       0.000       0.000       0.000       0.000       0.000      3.0000E-08
       3.0000E-08  3.0000E-08  3.0000E-08  3.0000E-08  3.0000E-08  3.0000E-08  3.0000E-08  3.0000E-08  3.0000E-08  3.0000E-08
       3.0000E-08   0.000       0.000       0.000       0.000       0.000       0.000       0.000       0.000       0.000    
        0.000       0.000    
  56    0.000       0.000       0.000       0.000       0.000       0.000       0.000       0.000       0.000       0.000    
        0.000       0.000       0.000       0.000       0.000       0.000       0.000       0.000       0.000       0.000    
        0.000       0.000       0.000       0.000       0.000       0.000       0.000       0.000       0.000      3.0000E-08
       3.0000E-08  3.0000E-08  3.0000E-08  3.0000E-08  3.0000E-08  3.0000E-08  3.0000E-08  3.0000E-08  3.0000E-08  3.0000E-08
       3.0000E-08  3.0000E-08   0.000       0.000       0.000       0.000       0.000       0.000       0.000       0.000    
        0.000       0.000    
  57    0.000       0.000       0.000       0.000       0.000       0.000       0.000       0.000       0.000       0.000    
        0.000       0.000       0.000       0.000       0.000       0.000       0.000       0.000       0.000       0.000    
        0.000       0.000       0.000       0.000       0.000       0.000       0.000       0.000       0.000       0.000    
       3.0000E-08  3.0000E-08  3.0000E-08  3.0000E-08  3.0000E-08  3.0000E-08  3.0000E-08  3.0000E-08  3.0000E-08  3.0000E-08
       3.0000E-08  3.0000E-08  3.0000E-08   0.000       0.000       0.000       0.000       0.000       0.000       0.000    
        0.000       0.000    
  58    0.000       0.000       0.000       0.000       0.000       0.000       0.000       0.000       0.000       0.000    
        0.000       0.000       0.000       0.000       0.000       0.000       0.000       0.000       0.000       0.000    
        0.000       0.000       0.000       0.000       0.000       0.000       0.000       0.000       0.000       0.000    
       3.0000E-08  3.0000E-08  3.0000E-08  3.0000E-08  3.0000E-08  3.0000E-08  3.0000E-08  3.0000E-08  3.0000E-08  3.0000E-08
       3.0000E-08  3.0000E-08  3.0000E-08  3.0000E-08   0.000       0.000       0.000       0.000       0.000       0.000    
        0.000       0.000    
  59    0.000       0.000       0.000       0.000       0.000       0.000       0.000       0.000       0.000       0.000    
        0.000       0.000       0.000       0.000       0.000       0.000       0.000       0.000       0.000       0.000    
        0.000       0.000       0.000       0.000       0.000       0.000       0.000       0.000       0.000       0.000    
        0.000      3.0000E-08  3.0000E-08  3.0000E-08  3.0000E-08  3.0000E-08  3.0000E-08  3.0000E-08  3.0000E-08  3.0000E-08
       3.0000E-08  3.0000E-08  3.0000E-08  3.0000E-08  3.0000E-08   0.000       0.000       0.000       0.000       0.000    
        0.000       0.000    
  60    0.000       0.000       0.000       0.000       0.000       0.000       0.000       0.000       0.000       0.000    
        0.000       0.000       0.000       0.000       0.000       0.000       0.000       0.000       0.000       0.000    
        0.000       0.000       0.000       0.000       0.000       0.000       0.000       0.000       0.000       0.000    
        0.000      3.0000E-08  3.0000E-08  3.0000E-08  3.0000E-08  3.0000E-08  3.0000E-08  3.0000E-08  3.0000E-08  3.0000E-08
       3.0000E-08  3.0000E-08  3.0000E-08  3.0000E-08  3.0000E-08   0.000       0.000       0.000       0.000       0.000    
        0.000       0.000    
  61    0.000       0.000       0.000       0.000       0.000       0.000       0.000       0.000       0.000       0.000    
        0.000       0.000       0.000       0.000       0.000       0.000       0.000       0.000       0.000       0.000    
        0.000       0.000       0.000       0.000       0.000       0.000       0.000       0.000       0.000       0.000    
        0.000       0.000      3.0000E-08  3.0000E-08  3.0000E-08  3.0000E-08  3.0000E-08  3.0000E-08  3.0000E-08  3.0000E-08
       3.0000E-08  3.0000E-08  3.0000E-08  3.0000E-08  3.0000E-08  3.0000E-08   0.000       0.000       0.000       0.000    
        0.000       0.000    
  62    0.000       0.000       0.000       0.000       0.000       0.000       0.000       0.000       0.000       0.000    
        0.000       0.000       0.000       0.000       0.000       0.000       0.000       0.000       0.000       0.000    
        0.000       0.000       0.000       0.000       0.000       0.000       0.000       0.000       0.000       0.000    
        0.000       0.000      3.0000E-08  3.0000E-08  3.0000E-08  3.0000E-08  3.0000E-08  3.0000E-08  3.0000E-08  3.0000E-08
       3.0000E-08  3.0000E-08  3.0000E-08  3.0000E-08  3.0000E-08  3.0000E-08   0.000       0.000       0.000       0.000    
        0.000       0.000    
  63    0.000       0.000       0.000       0.000       0.000       0.000       0.000       0.000       0.000       0.000    
        0.000       0.000       0.000       0.000       0.000       0.000       0.000       0.000       0.000       0.000    
        0.000       0.000       0.000       0.000       0.000       0.000       0.000       0.000       0.000       0.000    
        0.000       0.000       0.000      3.0000E-08  3.0000E-08  3.0000E-08  3.0000E-08  3.0000E-08  3.0000E-08  3.0000E-08
       3.0000E-08  3.0000E-08  3.0000E-08  3.0000E-08  3.0000E-08  3.0000E-08   0.000       0.000       0.000       0.000    
        0.000       0.000    
  64    0.000       0.000       0.000       0.000       0.000       0.000       0.000       0.000       0.000       0.000    
        0.000       0.000       0.000       0.000       0.000       0.000       0.000       0.000       0.000       0.000    
        0.000       0.000       0.000       0.000       0.000       0.000       0.000       0.000       0.000       0.000    
        0.000       0.000       0.000       0.000      3.0000E-08  3.0000E-08  3.0000E-08  3.0000E-08  3.0000E-08  3.0000E-08
       3.0000E-08  3.0000E-08  3.0000E-08  3.0000E-08  3.0000E-08  3.0000E-08  3.0000E-08   0.000       0.000       0.000    
        0.000       0.000    
  65    0.000       0.000       0.000       0.000       0.000       0.000       0.000       0.000       0.000       0.000    
        0.000       0.000       0.000       0.000       0.000       0.000       0.000       0.000       0.000       0.000    
        0.000       0.000       0.000       0.000       0.000       0.000       0.000       0.000       0.000       0.000    
        0.000       0.000       0.000       0.000       0.000      3.0000E-08  3.0000E-08  3.0000E-08  3.0000E-08  3.0000E-08
       3.0000E-08  3.0000E-08  3.0000E-08  3.0000E-08  3.0000E-08  3.0000E-08   0.000       0.000       0.000       0.000    
        0.000       0.000    
  66    0.000       0.000       0.000       0.000       0.000       0.000       0.000       0.000       0.000       0.000    
        0.000       0.000       0.000       0.000       0.000       0.000       0.000       0.000       0.000       0.000    
        0.000       0.000       0.000       0.000       0.000       0.000       0.000       0.000       0.000       0.000    
        0.000       0.000       0.000       0.000       0.000       0.000       0.000      3.0000E-08  3.0000E-08  3.0000E-08
       3.0000E-08  3.0000E-08  3.0000E-08  3.0000E-08  3.0000E-08  3.0000E-08   0.000       0.000       0.000       0.000    
        0.000       0.000    
  67    0.000       0.000       0.000       0.000       0.000       0.000       0.000       0.000       0.000       0.000    
        0.000       0.000       0.000       0.000       0.000       0.000       0.000       0.000       0.000       0.000    
        0.000       0.000       0.000       0.000       0.000       0.000       0.000       0.000       0.000       0.000    
        0.000       0.000       0.000       0.000       0.000       0.000       0.000       0.000       0.000      3.0000E-08
       3.0000E-08  3.0000E-08  3.0000E-08  3.0000E-08  3.0000E-08   0.000       0.000       0.000       0.000       0.000    
        0.000       0.000    
  68    0.000       0.000       0.000       0.000       0.000       0.000       0.000       0.000       0.000       0.000    
        0.000       0.000       0.000       0.000       0.000       0.000       0.000       0.000       0.000       0.000    
        0.000       0.000       0.000       0.000       0.000       0.000       0.000       0.000       0.000       0.000    
        0.000       0.000       0.000       0.000       0.000       0.000       0.000       0.000       0.000       0.000    
        0.000      3.0000E-08  3.0000E-08   0.000       0.000       0.000       0.000       0.000       0.000       0.000    
        0.000       0.000    



                   EXTINCTION DEPTH
 READING ON UNIT   25 WITH FORMAT: (FREE)              

            1           2           3           4           5           6           7           8           9          10
           11          12          13          14          15          16          17          18          19          20
           21          22          23          24          25          26          27          28          29          30
           31          32          33          34          35          36          37          38          39          40
           41          42          43          44          45          46          47          48          49          50
           51          52
 ........................................................................................................................
   1    0.000       0.000       0.000       0.000       0.000       0.000       0.000       0.000       0.000       0.000    
        0.000       0.000       0.000       0.000       0.000       0.000       0.000       0.000       0.000       0.000    
       0.5000      0.5000      0.5000      0.5000      0.5000      0.5000      0.5000      0.5000      0.5000       0.000    
        0.000       0.000       0.000       0.000       0.000       0.000       0.000       0.000       0.000       0.000    
        0.000       0.000       0.000       0.000       0.000       0.000       0.000       0.000       0.000       0.000    
        0.000       0.000    
   2    0.000       0.000       0.000       0.000       0.000       0.000       0.000       0.000       0.000       0.000    
        0.000       0.000       0.000       0.000       0.000       0.000       0.000       0.000       0.000      0.5000    
       0.5000      0.5000      0.5000      0.5000      0.5000      0.5000      0.5000      0.5000      0.5000      0.5000    
       0.5000       0.000       0.000       0.000       0.000       0.000       0.000       0.000       0.000       0.000    
        0.000       0.000       0.000       0.000       0.000       0.000       0.000       0.000       0.000       0.000    
        0.000       0.000    
   3    0.000       0.000       0.000       0.000       0.000       0.000       0.000       0.000       0.000       0.000    
        0.000       0.000       0.000       0.000       0.000       0.000       0.000      0.5000      0.5000      0.5000    
       0.5000      0.5000      0.5000      0.5000      0.5000      0.5000      0.5000      0.5000      0.5000      0.5000    
       0.5000      0.5000      0.5000       0.000       0.000       0.000       0.000       0.000       0.000       0.000    
        0.000       0.000       0.000       0.000       0.000       0.000       0.000       0.000       0.000       0.000    
        0.000       0.000    
   4    0.000       0.000       0.000       0.000       0.000       0.000       0.000       0.000       0.000       0.000    
       0.5000      0.5000      0.5000      0.5000      0.5000      0.5000      0.5000      0.5000      0.5000      0.5000    
       0.5000      0.5000      0.5000      0.5000      0.5000      0.5000      0.5000      0.5000      0.5000      0.5000    
       0.5000      0.5000      0.5000      0.5000      0.5000       0.000       0.000       0.000       0.000       0.000    
        0.000       0.000       0.000       0.000       0.000       0.000       0.000       0.000       0.000       0.000    
        0.000       0.000    
   5    0.000       0.000       0.000       0.000       0.000       0.000       0.000      0.5000      0.5000      0.5000    
       0.5000      0.5000      0.5000      0.5000      0.5000      0.5000      0.5000      0.5000      0.5000      0.5000    
       0.5000      0.5000      0.5000      0.5000      0.5000      0.5000      0.5000      0.5000      0.5000      0.5000    
       0.5000      0.5000      0.5000      0.5000      0.5000      0.5000       0.000       0.000       0.000       0.000    
        0.000       0.000       0.000       0.000       0.000       0.000       0.000       0.000       0.000       0.000    
        0.000       0.000    
   6    0.000       0.000       0.000       0.000       0.000       0.000       0.000      0.5000      0.5000      0.5000    
       0.5000      0.5000      0.5000      0.5000      0.5000      0.5000      0.5000      0.5000      0.5000      0.5000    
       0.5000      0.5000      0.5000      0.5000      0.5000      0.5000      0.5000      0.5000      0.5000      0.5000    
       0.5000      0.5000      0.5000      0.5000      0.5000      0.5000       0.000       0.000       0.000       0.000    
        0.000       0.000       0.000       0.000       0.000       0.000       0.000       0.000       0.000       0.000    
        0.000       0.000    
   7    0.000       0.000       0.000       0.000       0.000       0.000       0.000      0.5000      0.5000      0.5000    
       0.5000      0.5000      0.5000      0.5000      0.5000      0.5000      0.5000      0.5000      0.5000      0.5000    
       0.5000      0.5000      0.5000      0.5000      0.5000      0.5000      0.5000      0.5000      0.5000      0.5000    
       0.5000      0.5000      0.5000      0.5000      0.5000      0.5000       0.000       0.000       0.000       0.000    
        0.000       0.000       0.000       0.000       0.000       0.000       0.000       0.000       0.000       0.000    
        0.000       0.000    
   8    0.000       0.000       0.000       0.000       0.000       0.000       0.000      0.5000      0.5000      0.5000    
       0.5000      0.5000      0.5000      0.5000      0.5000      0.5000      0.5000      0.5000      0.5000      0.5000    
       0.5000      0.5000      0.5000      0.5000      0.5000      0.5000      0.5000      0.5000      0.5000      0.5000    
       0.5000      0.5000      0.5000      0.5000      0.5000      0.5000       0.000       0.000       0.000       0.000    
        0.000       0.000       0.000       0.000       0.000       0.000       0.000       0.000       0.000       0.000    
        0.000       0.000    
   9    0.000       0.000       0.000       0.000       0.000       0.000       0.000      0.5000      0.5000      0.5000    
       0.5000      0.5000      0.5000      0.5000      0.5000      0.5000      0.5000      0.5000      0.5000      0.5000    
       0.5000      0.5000      0.5000      0.5000      0.5000      0.5000      0.5000      0.5000      0.5000      0.5000    
       0.5000      0.5000      0.5000      0.5000      0.5000       0.000       0.000       0.000       0.000       0.000    
        0.000       0.000       0.000       0.000       0.000       0.000       0.000       0.000       0.000       0.000    
        0.000       0.000    
  10    0.000       0.000       0.000       0.000       0.000       0.000       0.000      0.5000      0.5000      0.5000    
       0.5000      0.5000      0.5000      0.5000      0.5000      0.5000      0.5000      0.5000      0.5000      0.5000    
       0.5000      0.5000      0.5000      0.5000      0.5000      0.5000      0.5000      0.5000      0.5000      0.5000    
       0.5000      0.5000      0.5000      0.5000      0.5000       0.000       0.000       0.000       0.000       0.000    
        0.000       0.000       0.000       0.000       0.000       0.000       0.000       0.000       0.000       0.000    
        0.000       0.000    
  11    0.000       0.000       0.000       0.000       0.000       0.000       0.000      0.5000      0.5000      0.5000    
       0.5000      0.5000      0.5000      0.5000      0.5000      0.5000      0.5000      0.5000      0.5000      0.5000    
       0.5000      0.5000      0.5000      0.5000      0.5000      0.5000      0.5000      0.5000      0.5000      0.5000    
       0.5000      0.5000      0.5000      0.5000      0.5000       0.000       0.000       0.000       0.000       0.000    
        0.000       0.000       0.000       0.000       0.000       0.000       0.000       0.000       0.000       0.000    
        0.000       0.000    
  12    0.000       0.000       0.000       0.000       0.000       0.000       0.000      0.5000      0.5000      0.5000    
       0.5000      0.5000      0.5000      0.5000      0.5000      0.5000      0.5000      0.5000      0.5000      0.5000    
       0.5000      0.5000      0.5000      0.5000      0.5000      0.5000      0.5000      0.5000      0.5000      0.5000    
       0.5000      0.5000      0.5000      0.5000      0.5000       0.000       0.000       0.000       0.000       0.000    
        0.000       0.000       0.000       0.000       0.000       0.000       0.000       0.000       0.000       0.000    
        0.000       0.000    
  13    0.000       0.000       0.000       0.000       0.000       0.000       0.000      0.5000      0.5000      0.5000    
       0.5000      0.5000      0.5000      0.5000      0.5000      0.5000      0.5000      0.5000      0.5000      0.5000    
       0.5000      0.5000      0.5000      0.5000      0.5000      0.5000      0.5000      0.5000      0.5000      0.5000    
       0.5000      0.5000      0.5000      0.5000      0.5000       0.000       0.000       0.000       0.000       0.000    
        0.000       0.000       0.000       0.000       0.000       0.000       0.000       0.000       0.000       0.000    
        0.000       0.000    
  14    0.000       0.000       0.000       0.000       0.000       0.000       0.000      0.5000      0.5000      0.5000    
       0.5000      0.5000      0.5000      0.5000      0.5000      0.5000      0.5000      0.5000      0.5000      0.5000    
       0.5000      0.5000      0.5000      0.5000      0.5000      0.5000      0.5000      0.5000      0.5000      0.5000    
       0.5000      0.5000      0.5000      0.5000      0.5000       0.000       0.000       0.000       0.000       0.000    
        0.000       0.000       0.000       0.000       0.000       0.000       0.000       0.000       0.000       0.000    
        0.000       0.000    
  15    0.000       0.000       0.000       0.000       0.000       0.000       0.000      0.5000      0.5000      0.5000    
       0.5000      0.5000      0.5000      0.5000      0.5000      0.5000      0.5000      0.5000      0.5000      0.5000    
       0.5000      0.5000      0.5000      0.5000      0.5000      0.5000      0.5000      0.5000      0.5000      0.5000    
       0.5000      0.5000      0.5000      0.5000      0.5000      0.5000       0.000       0.000       0.000       0.000    
        0.000       0.000       0.000       0.000       0.000       0.000       0.000       0.000       0.000       0.000    
        0.000       0.000    
  16    0.000       0.000       0.000       0.000       0.000       0.000       0.000      0.5000      0.5000      0.5000    
       0.5000      0.5000      0.5000      0.5000      0.5000      0.5000      0.5000      0.5000      0.5000      0.5000    
       0.5000      0.5000      0.5000      0.5000      0.5000      0.5000      0.5000      0.5000      0.5000      0.5000    
       0.5000      0.5000      0.5000      0.5000      0.5000      0.5000      0.5000       0.000       0.000       0.000    
        0.000       0.000       0.000       0.000       0.000       0.000       0.000       0.000       0.000       0.000    
        0.000       0.000    
  17    0.000       0.000       0.000       0.000       0.000       0.000       0.000      0.5000      0.5000      0.5000    
       0.5000      0.5000      0.5000      0.5000      0.5000      0.5000      0.5000      0.5000      0.5000      0.5000    
       0.5000      0.5000      0.5000      0.5000      0.5000      0.5000      0.5000      0.5000      0.5000      0.5000    
       0.5000      0.5000      0.5000      0.5000      0.5000      0.5000      0.5000      0.5000      0.5000      0.5000    
        0.000       0.000       0.000       0.000       0.000       0.000       0.000       0.000       0.000       0.000    
        0.000       0.000    
  18    0.000       0.000       0.000       0.000       0.000       0.000       0.000      0.5000      0.5000      0.5000    
       0.5000      0.5000      0.5000      0.5000      0.5000      0.5000      0.5000      0.5000      0.5000      0.5000    
       0.5000      0.5000      0.5000      0.5000      0.5000      0.5000      0.5000      0.5000      0.5000      0.5000    
       0.5000      0.5000      0.5000      0.5000      0.5000      0.5000      0.5000      0.5000      0.5000      0.5000    
       0.5000      0.5000      0.5000      0.5000       0.000       0.000       0.000       0.000       0.000       0.000    
        0.000       0.000    
  19    0.000       0.000       0.000       0.000       0.000       0.000       0.000      0.5000      0.5000      0.5000    
       0.5000      0.5000      0.5000      0.5000      0.5000      0.5000      0.5000      0.5000      0.5000      0.5000    
       0.5000      0.5000      0.5000      0.5000      0.5000      0.5000      0.5000      0.5000      0.5000      0.5000    
       0.5000      0.5000      0.5000      0.5000      0.5000      0.5000      0.5000      0.5000      0.5000      0.5000    
       0.5000      0.5000      0.5000      0.5000      0.5000      0.5000      0.5000      0.5000      0.5000      0.5000    
       0.5000      0.5000    
  20    0.000       0.000       0.000       0.000       0.000       0.000       0.000      0.5000      0.5000      0.5000    
       0.5000      0.5000      0.5000      0.5000      0.5000      0.5000      0.5000      0.5000      0.5000      0.5000    
       0.5000      0.5000      0.5000      0.5000      0.5000      0.5000      0.5000      0.5000      0.5000      0.5000    
       0.5000      0.5000      0.5000      0.5000      0.5000      0.5000      0.5000      0.5000      0.5000      0.5000    
       0.5000      0.5000      0.5000      0.5000      0.5000      0.5000      0.5000      0.5000      0.5000      0.5000    
       0.5000      0.5000    
  21    0.000       0.000       0.000       0.000       0.000       0.000       0.000      0.5000      0.5000      0.5000    
       0.5000      0.5000      0.5000      0.5000      0.5000      0.5000      0.5000      0.5000      0.5000      0.5000    
       0.5000      0.5000      0.5000      0.5000      0.5000      0.5000      0.5000      0.5000      0.5000      0.5000    
       0.5000      0.5000      0.5000      0.5000      0.5000      0.5000      0.5000      0.5000      0.5000      0.5000    
       0.5000      0.5000      0.5000      0.5000      0.5000      0.5000      0.5000      0.5000      0.5000      0.5000    
       0.5000       0.000    
  22    0.000       0.000       0.000       0.000       0.000       0.000       0.000      0.5000      0.5000      0.5000    
       0.5000      0.5000      0.5000      0.5000      0.5000      0.5000      0.5000      0.5000      0.5000      0.5000    
       0.5000      0.5000      0.5000      0.5000      0.5000      0.5000      0.5000      0.5000      0.5000      0.5000    
       0.5000      0.5000      0.5000      0.5000      0.5000      0.5000       0.000      0.5000      0.5000      0.5000    
       0.5000      0.5000      0.5000      0.5000      0.5000      0.5000      0.5000      0.5000      0.5000       0.000    
        0.000       0.000    
  23    0.000       0.000       0.000       0.000       0.000       0.000       0.000      0.5000      0.5000      0.5000    
       0.5000      0.5000      0.5000      0.5000      0.5000      0.5000      0.5000      0.5000      0.5000      0.5000    
       0.5000      0.5000      0.5000      0.5000      0.5000      0.5000      0.5000      0.5000      0.5000      0.5000    
       0.5000      0.5000      0.5000      0.5000      0.5000      0.5000      0.5000       0.000       0.000       0.000    
       0.5000      0.5000      0.5000      0.5000      0.5000      0.5000      0.5000      0.5000       0.000       0.000    
        0.000       0.000    
  24    0.000       0.000       0.000       0.000       0.000       0.000       0.000      0.5000      0.5000      0.5000    
       0.5000      0.5000      0.5000      0.5000      0.5000      0.5000      0.5000      0.5000      0.5000      0.5000    
       0.5000      0.5000      0.5000      0.5000      0.5000      0.5000      0.5000      0.5000      0.5000      0.5000    
       0.5000      0.5000      0.5000      0.5000      0.5000      0.5000      0.5000       0.000       0.000       0.000    
        0.000       0.000       0.000       0.000       0.000       0.000      0.5000       0.000       0.000       0.000    
        0.000       0.000    
  25    0.000       0.000       0.000       0.000       0.000       0.000       0.000      0.5000      0.5000      0.5000    
       0.5000      0.5000      0.5000      0.5000      0.5000      0.5000      0.5000      0.5000      0.5000      0.5000    
       0.5000      0.5000      0.5000      0.5000      0.5000      0.5000      0.5000      0.5000      0.5000      0.5000    
       0.5000      0.5000      0.5000      0.5000      0.5000      0.5000      0.5000       0.000       0.000       0.000    
        0.000       0.000       0.000       0.000       0.000       0.000       0.000       0.000       0.000       0.000    
        0.000       0.000    
  26    0.000       0.000       0.000       0.000       0.000       0.000       0.000      0.5000      0.5000      0.5000    
       0.5000      0.5000      0.5000      0.5000      0.5000      0.5000      0.5000      0.5000      0.5000      0.5000    
       0.5000      0.5000      0.5000      0.5000      0.5000      0.5000      0.5000      0.5000      0.5000      0.5000    
       0.5000      0.5000      0.5000      0.5000      0.5000      0.5000      0.5000       0.000       0.000       0.000    
        0.000       0.000       0.000       0.000       0.000       0.000       0.000       0.000       0.000       0.000    
        0.000       0.000    
  27    0.000       0.000       0.000       0.000       0.000       0.000       0.000       0.000      0.5000      0.5000    
       0.5000      0.5000      0.5000      0.5000      0.5000      0.5000      0.5000      0.5000      0.5000      0.5000    
       0.5000      0.5000      0.5000      0.5000      0.5000      0.5000      0.5000      0.5000      0.5000      0.5000    
       0.5000      0.5000      0.5000      0.5000      0.5000      0.5000      0.5000       0.000       0.000       0.000    
        0.000       0.000       0.000       0.000       0.000       0.000       0.000       0.000       0.000       0.000    
        0.000       0.000    
  28    0.000       0.000       0.000       0.000       0.000       0.000       0.000       0.000      0.5000      0.5000    
       0.5000      0.5000      0.5000      0.5000      0.5000      0.5000      0.5000      0.5000      0.5000      0.5000    
       0.5000      0.5000      0.5000      0.5000      0.5000      0.5000      0.5000      0.5000      0.5000      0.5000    
       0.5000      0.5000      0.5000      0.5000      0.5000      0.5000      0.5000       0.000       0.000       0.000    
        0.000       0.000       0.000       0.000       0.000       0.000       0.000       0.000       0.000       0.000    
        0.000       0.000    
  29    0.000       0.000       0.000       0.000       0.000       0.000       0.000       0.000      0.5000      0.5000    
       0.5000      0.5000      0.5000      0.5000      0.5000      0.5000      0.5000      0.5000      0.5000      0.5000    
       0.5000      0.5000      0.5000      0.5000      0.5000      0.5000      0.5000      0.5000      0.5000      0.5000    
       0.5000      0.5000      0.5000      0.5000      0.5000      0.5000      0.5000       0.000       0.000       0.000    
        0.000       0.000       0.000       0.000       0.000       0.000       0.000       0.000       0.000       0.000    
        0.000       0.000    
  30    0.000       0.000       0.000       0.000       0.000       0.000       0.000       0.000      0.5000      0.5000    
       0.5000      0.5000      0.5000      0.5000      0.5000      0.5000      0.5000      0.5000      0.5000      0.5000    
       0.5000      0.5000      0.5000      0.5000      0.5000      0.5000      0.5000      0.5000      0.5000      0.5000    
       0.5000      0.5000      0.5000      0.5000      0.5000      0.5000       0.000       0.000       0.000       0.000    
        0.000       0.000       0.000       0.000       0.000       0.000       0.000       0.000       0.000       0.000    
        0.000       0.000    
  31    0.000       0.000       0.000       0.000       0.000       0.000       0.000       0.000      0.5000      0.5000    
       0.5000      0.5000      0.5000      0.5000      0.5000      0.5000      0.5000      0.5000      0.5000      0.5000    
       0.5000      0.5000      0.5000      0.5000      0.5000      0.5000      0.5000      0.5000      0.5000      0.5000    
       0.5000      0.5000      0.5000      0.5000      0.5000      0.5000       0.000       0.000       0.000       0.000    
        0.000       0.000       0.000       0.000       0.000       0.000       0.000       0.000       0.000       0.000    
        0.000       0.000    
  32    0.000       0.000       0.000       0.000       0.000       0.000       0.000       0.000      0.5000      0.5000    
       0.5000      0.5000      0.5000      0.5000      0.5000      0.5000      0.5000      0.5000      0.5000      0.5000    
       0.5000      0.5000      0.5000      0.5000      0.5000      0.5000      0.5000      0.5000      0.5000      0.5000    
       0.5000      0.5000      0.5000      0.5000      0.5000      0.5000       0.000       0.000       0.000       0.000    
        0.000       0.000       0.000       0.000       0.000       0.000       0.000       0.000       0.000       0.000    
        0.000       0.000    
  33    0.000       0.000       0.000       0.000       0.000       0.000       0.000       0.000      0.5000      0.5000    
       0.5000      0.5000      0.5000      0.5000      0.5000      0.5000      0.5000      0.5000      0.5000      0.5000    
       0.5000      0.5000      0.5000      0.5000      0.5000      0.5000      0.5000      0.5000      0.5000      0.5000    
       0.5000      0.5000      0.5000      0.5000      0.5000      0.5000       0.000       0.000       0.000       0.000    
        0.000       0.000       0.000       0.000       0.000       0.000       0.000       0.000       0.000       0.000    
        0.000       0.000    
  34    0.000       0.000       0.000       0.000       0.000       0.000       0.000       0.000       0.000      0.5000    
       0.5000      0.5000      0.5000      0.5000      0.5000      0.5000      0.5000      0.5000      0.5000      0.5000    
       0.5000      0.5000      0.5000      0.5000      0.5000      0.5000      0.5000      0.5000      0.5000      0.5000    
       0.5000      0.5000      0.5000      0.5000      0.5000      0.5000       0.000       0.000       0.000       0.000    
        0.000       0.000       0.000       0.000       0.000       0.000       0.000       0.000       0.000       0.000    
        0.000       0.000    
  35    0.000       0.000       0.000       0.000       0.000       0.000       0.000       0.000       0.000      0.5000    
       0.5000      0.5000      0.5000      0.5000      0.5000      0.5000      0.5000      0.5000      0.5000      0.5000    
       0.5000      0.5000      0.5000      0.5000      0.5000      0.5000      0.5000      0.5000      0.5000      0.5000    
       0.5000      0.5000      0.5000      0.5000      0.5000      0.5000       0.000       0.000       0.000       0.000    
        0.000       0.000       0.000       0.000       0.000       0.000       0.000       0.000       0.000       0.000    
        0.000       0.000    
  36    0.000       0.000       0.000       0.000       0.000       0.000       0.000       0.000       0.000       0.000    
       0.5000      0.5000      0.5000      0.5000      0.5000      0.5000      0.5000      0.5000      0.5000      0.5000    
       0.5000      0.5000      0.5000      0.5000      0.5000      0.5000      0.5000      0.5000      0.5000      0.5000    
       0.5000      0.5000      0.5000      0.5000      0.5000      0.5000       0.000       0.000       0.000       0.000    
        0.000       0.000       0.000       0.000       0.000       0.000       0.000       0.000       0.000       0.000    
        0.000       0.000    
  37    0.000       0.000       0.000       0.000       0.000       0.000       0.000       0.000       0.000       0.000    
       0.5000      0.5000      0.5000      0.5000      0.5000      0.5000      0.5000      0.5000      0.5000      0.5000    
       0.5000      0.5000      0.5000      0.5000      0.5000      0.5000      0.5000      0.5000      0.5000      0.5000    
       0.5000      0.5000      0.5000      0.5000      0.5000      0.5000       0.000       0.000       0.000       0.000    
        0.000       0.000       0.000       0.000       0.000       0.000       0.000       0.000       0.000       0.000    
        0.000       0.000    
  38    0.000       0.000       0.000       0.000       0.000       0.000       0.000       0.000       0.000       0.000    
        0.000       0.000       0.000      0.5000      0.5000      0.5000      0.5000      0.5000      0.5000      0.5000    
       0.5000      0.5000      0.5000      0.5000      0.5000      0.5000      0.5000      0.5000      0.5000      0.5000    
       0.5000      0.5000      0.5000      0.5000      0.5000      0.5000      0.5000       0.000       0.000       0.000    
        0.000       0.000       0.000       0.000       0.000       0.000       0.000       0.000       0.000       0.000    
        0.000       0.000    
  39    0.000       0.000       0.000       0.000       0.000       0.000       0.000       0.000       0.000       0.000    
        0.000       0.000       0.000       0.000       0.000       0.000      0.5000      0.5000      0.5000      0.5000    
       0.5000      0.5000      0.5000      0.5000      0.5000      0.5000      0.5000      0.5000      0.5000      0.5000    
       0.5000      0.5000      0.5000      0.5000      0.5000      0.5000      0.5000       0.000       0.000       0.000    
        0.000       0.000       0.000       0.000       0.000       0.000       0.000       0.000       0.000       0.000    
        0.000       0.000    
  40    0.000       0.000       0.000       0.000       0.000       0.000       0.000       0.000       0.000       0.000    
        0.000       0.000       0.000       0.000       0.000       0.000       0.000      0.5000      0.5000      0.5000    
       0.5000      0.5000      0.5000      0.5000      0.5000      0.5000      0.5000      0.5000      0.5000      0.5000    
       0.5000      0.5000      0.5000      0.5000      0.5000      0.5000      0.5000       0.000       0.000       0.000    
        0.000       0.000       0.000       0.000       0.000       0.000       0.000       0.000       0.000       0.000    
        0.000       0.000    
  41    0.000       0.000       0.000       0.000       0.000       0.000       0.000       0.000       0.000       0.000    
        0.000       0.000       0.000       0.000       0.000       0.000       0.000       0.000      0.5000      0.5000    
       0.5000      0.5000      0.5000      0.5000      0.5000      0.5000      0.5000      0.5000      0.5000      0.5000    
       0.5000      0.5000      0.5000      0.5000      0.5000      0.5000      0.5000       0.000       0.000       0.000    
        0.000       0.000       0.000       0.000       0.000       0.000       0.000       0.000       0.000       0.000    
        0.000       0.000    
  42    0.000       0.000       0.000       0.000       0.000       0.000       0.000       0.000       0.000       0.000    
        0.000       0.000       0.000       0.000       0.000       0.000       0.000       0.000      0.5000      0.5000    
       0.5000      0.5000      0.5000      0.5000      0.5000      0.5000      0.5000      0.5000      0.5000      0.5000    
       0.5000      0.5000      0.5000      0.5000      0.5000      0.5000      0.5000       0.000       0.000       0.000    
        0.000       0.000       0.000       0.000       0.000       0.000       0.000       0.000       0.000       0.000    
        0.000       0.000    
  43    0.000       0.000       0.000       0.000       0.000       0.000       0.000       0.000       0.000       0.000    
        0.000       0.000       0.000       0.000       0.000       0.000       0.000       0.000       0.000      0.5000    
       0.5000      0.5000      0.5000      0.5000      0.5000      0.5000      0.5000      0.5000      0.5000      0.5000    
       0.5000      0.5000      0.5000      0.5000      0.5000      0.5000      0.5000      0.5000       0.000       0.000    
        0.000       0.000       0.000       0.000       0.000       0.000       0.000       0.000       0.000       0.000    
        0.000       0.000    
  44    0.000       0.000       0.000       0.000       0.000       0.000       0.000       0.000       0.000       0.000    
        0.000       0.000       0.000       0.000       0.000       0.000       0.000       0.000       0.000      0.5000    
       0.5000      0.5000      0.5000      0.5000      0.5000      0.5000      0.5000      0.5000      0.5000      0.5000    
       0.5000      0.5000      0.5000      0.5000      0.5000      0.5000      0.5000      0.5000       0.000       0.000    
        0.000       0.000       0.000       0.000       0.000       0.000       0.000       0.000       0.000       0.000    
        0.000       0.000    
  45    0.000       0.000       0.000       0.000       0.000       0.000       0.000       0.000       0.000       0.000    
        0.000       0.000       0.000       0.000       0.000       0.000       0.000       0.000       0.000       0.000    
       0.5000      0.5000      0.5000      0.5000      0.5000      0.5000      0.5000      0.5000      0.5000      0.5000    
       0.5000      0.5000      0.5000      0.5000      0.5000      0.5000      0.5000      0.5000       0.000       0.000    
        0.000       0.000       0.000       0.000       0.000       0.000       0.000       0.000       0.000       0.000    
        0.000       0.000    
  46    0.000       0.000       0.000       0.000       0.000       0.000       0.000       0.000       0.000       0.000    
        0.000       0.000       0.000       0.000       0.000       0.000       0.000       0.000       0.000       0.000    
       0.5000      0.5000      0.5000      0.5000      0.5000      0.5000      0.5000      0.5000      0.5000      0.5000    
       0.5000      0.5000      0.5000      0.5000      0.5000      0.5000      0.5000      0.5000       0.000       0.000    
        0.000       0.000       0.000       0.000       0.000       0.000       0.000       0.000       0.000       0.000    
        0.000       0.000    
  47    0.000       0.000       0.000       0.000       0.000       0.000       0.000       0.000       0.000       0.000    
        0.000       0.000       0.000       0.000       0.000       0.000       0.000       0.000       0.000       0.000    
        0.000      0.5000      0.5000      0.5000      0.5000      0.5000      0.5000      0.5000      0.5000      0.5000    
       0.5000      0.5000      0.5000      0.5000      0.5000      0.5000      0.5000      0.5000       0.000       0.000    
        0.000       0.000       0.000       0.000       0.000       0.000       0.000       0.000       0.000       0.000    
        0.000       0.000    
  48    0.000       0.000       0.000       0.000       0.000       0.000       0.000       0.000       0.000       0.000    
        0.000       0.000       0.000       0.000       0.000       0.000       0.000       0.000       0.000       0.000    
        0.000      0.5000      0.5000      0.5000      0.5000      0.5000      0.5000      0.5000      0.5000      0.5000    
       0.5000      0.5000      0.5000      0.5000      0.5000      0.5000      0.5000      0.5000       0.000       0.000    
        0.000       0.000       0.000       0.000       0.000       0.000       0.000       0.000       0.000       0.000    
        0.000       0.000    
  49    0.000       0.000       0.000       0.000       0.000       0.000       0.000       0.000       0.000       0.000    
        0.000       0.000       0.000       0.000       0.000       0.000       0.000       0.000       0.000       0.000    
        0.000       0.000      0.5000      0.5000      0.5000      0.5000      0.5000      0.5000      0.5000      0.5000    
       0.5000      0.5000      0.5000      0.5000      0.5000      0.5000      0.5000      0.5000      0.5000       0.000    
        0.000       0.000       0.000       0.000       0.000       0.000       0.000       0.000       0.000       0.000    
        0.000       0.000    
  50    0.000       0.000       0.000       0.000       0.000       0.000       0.000       0.000       0.000       0.000    
        0.000       0.000       0.000       0.000       0.000       0.000       0.000       0.000       0.000       0.000    
        0.000       0.000       0.000      0.5000      0.5000      0.5000      0.5000      0.5000      0.5000      0.5000    
       0.5000      0.5000      0.5000      0.5000      0.5000      0.5000      0.5000      0.5000      0.5000       0.000    
        0.000       0.000       0.000       0.000       0.000       0.000       0.000       0.000       0.000       0.000    
        0.000       0.000    
  51    0.000       0.000       0.000       0.000       0.000       0.000       0.000       0.000       0.000       0.000    
        0.000       0.000       0.000       0.000       0.000       0.000       0.000       0.000       0.000       0.000    
        0.000       0.000       0.000       0.000      0.5000      0.5000      0.5000      0.5000      0.5000      0.5000    
       0.5000      0.5000      0.5000      0.5000      0.5000      0.5000      0.5000      0.5000      0.5000       0.000    
        0.000       0.000       0.000       0.000       0.000       0.000       0.000       0.000       0.000       0.000    
        0.000       0.000    
  52    0.000       0.000       0.000       0.000       0.000       0.000       0.000       0.000       0.000       0.000    
        0.000       0.000       0.000       0.000       0.000       0.000       0.000       0.000       0.000       0.000    
        0.000       0.000       0.000       0.000       0.000      0.5000      0.5000       0.000      0.5000      0.5000    
       0.5000      0.5000      0.5000      0.5000      0.5000      0.5000      0.5000      0.5000      0.5000       0.000    
        0.000       0.000       0.000       0.000       0.000       0.000       0.000       0.000       0.000       0.000    
        0.000       0.000    
  53    0.000       0.000       0.000       0.000       0.000       0.000       0.000       0.000       0.000       0.000    
        0.000       0.000       0.000       0.000       0.000       0.000       0.000       0.000       0.000       0.000    
        0.000       0.000       0.000       0.000       0.000       0.000       0.000       0.000       0.000      0.5000    
       0.5000      0.5000      0.5000      0.5000      0.5000      0.5000      0.5000      0.5000      0.5000      0.5000    
        0.000       0.000       0.000       0.000       0.000       0.000       0.000       0.000       0.000       0.000    
        0.000       0.000    
  54    0.000       0.000       0.000       0.000       0.000       0.000       0.000       0.000       0.000       0.000    
        0.000       0.000       0.000       0.000       0.000       0.000       0.000       0.000       0.000       0.000    
        0.000       0.000       0.000       0.000       0.000       0.000       0.000       0.000       0.000      0.5000    
       0.5000      0.5000      0.5000      0.5000      0.5000      0.5000      0.5000      0.5000      0.5000      0.5000    
        0.000       0.000       0.000       0.000       0.000       0.000       0.000       0.000       0.000       0.000    
        0.000       0.000    
  55    0.000       0.000       0.000       0.000       0.000       0.000       0.000       0.000       0.000       0.000    
        0.000       0.000       0.000       0.000       0.000       0.000       0.000       0.000       0.000       0.000    
        0.000       0.000       0.000       0.000       0.000       0.000       0.000       0.000       0.000      0.5000    
       0.5000      0.5000      0.5000      0.5000      0.5000      0.5000      0.5000      0.5000      0.5000      0.5000    
       0.5000       0.000       0.000       0.000       0.000       0.000       0.000       0.000       0.000       0.000    
        0.000       0.000    
  56    0.000       0.000       0.000       0.000       0.000       0.000       0.000       0.000       0.000       0.000    
        0.000       0.000       0.000       0.000       0.000       0.000       0.000       0.000       0.000       0.000    
        0.000       0.000       0.000       0.000       0.000       0.000       0.000       0.000       0.000      0.5000    
       0.5000      0.5000      0.5000      0.5000      0.5000      0.5000      0.5000      0.5000      0.5000      0.5000    
       0.5000      0.5000       0.000       0.000       0.000       0.000       0.000       0.000       0.000       0.000    
        0.000       0.000    
  57    0.000       0.000       0.000       0.000       0.000       0.000       0.000       0.000       0.000       0.000    
        0.000       0.000       0.000       0.000       0.000       0.000       0.000       0.000       0.000       0.000    
        0.000       0.000       0.000       0.000       0.000       0.000       0.000       0.000       0.000       0.000    
       0.5000      0.5000      0.5000      0.5000      0.5000      0.5000      0.5000      0.5000      0.5000      0.5000    
       0.5000      0.5000      0.5000       0.000       0.000       0.000       0.000       0.000       0.000       0.000    
        0.000       0.000    
  58    0.000       0.000       0.000       0.000       0.000       0.000       0.000       0.000       0.000       0.000    
        0.000       0.000       0.000       0.000       0.000       0.000       0.000       0.000       0.000       0.000    
        0.000       0.000       0.000       0.000       0.000       0.000       0.000       0.000       0.000       0.000    
       0.5000      0.5000      0.5000      0.5000      0.5000      0.5000      0.5000      0.5000      0.5000      0.5000    
       0.5000      0.5000      0.5000      0.5000       0.000       0.000       0.000       0.000       0.000       0.000    
        0.000       0.000    
  59    0.000       0.000       0.000       0.000       0.000       0.000       0.000       0.000       0.000       0.000    
        0.000       0.000       0.000       0.000       0.000       0.000       0.000       0.000       0.000       0.000    
        0.000       0.000       0.000       0.000       0.000       0.000       0.000       0.000       0.000       0.000    
        0.000      0.5000      0.5000      0.5000      0.5000      0.5000      0.5000      0.5000      0.5000      0.5000    
       0.5000      0.5000      0.5000      0.5000      0.5000       0.000       0.000       0.000       0.000       0.000    
        0.000       0.000    
  60    0.000       0.000       0.000       0.000       0.000       0.000       0.000       0.000       0.000       0.000    
        0.000       0.000       0.000       0.000       0.000       0.000       0.000       0.000       0.000       0.000    
        0.000       0.000       0.000       0.000       0.000       0.000       0.000       0.000       0.000       0.000    
        0.000      0.5000      0.5000      0.5000      0.5000      0.5000      0.5000      0.5000      0.5000      0.5000    
       0.5000      0.5000      0.5000      0.5000      0.5000       0.000       0.000       0.000       0.000       0.000    
        0.000       0.000    
  61    0.000       0.000       0.000       0.000       0.000       0.000       0.000       0.000       0.000       0.000    
        0.000       0.000       0.000       0.000       0.000       0.000       0.000       0.000       0.000       0.000    
        0.000       0.000       0.000       0.000       0.000       0.000       0.000       0.000       0.000       0.000    
        0.000       0.000      0.5000      0.5000      0.5000      0.5000      0.5000      0.5000      0.5000      0.5000    
       0.5000      0.5000      0.5000      0.5000      0.5000      0.5000       0.000       0.000       0.000       0.000    
        0.000       0.000    
  62    0.000       0.000       0.000       0.000       0.000       0.000       0.000       0.000       0.000       0.000    
        0.000       0.000       0.000       0.000       0.000       0.000       0.000       0.000       0.000       0.000    
        0.000       0.000       0.000       0.000       0.000       0.000       0.000       0.000       0.000       0.000    
        0.000       0.000      0.5000      0.5000      0.5000      0.5000      0.5000      0.5000      0.5000      0.5000    
       0.5000      0.5000      0.5000      0.5000      0.5000      0.5000       0.000       0.000       0.000       0.000    
        0.000       0.000    
  63    0.000       0.000       0.000       0.000       0.000       0.000       0.000       0.000       0.000       0.000    
        0.000       0.000       0.000       0.000       0.000       0.000       0.000       0.000       0.000       0.000    
        0.000       0.000       0.000       0.000       0.000       0.000       0.000       0.000       0.000       0.000    
        0.000       0.000       0.000      0.5000      0.5000      0.5000      0.5000      0.5000      0.5000      0.5000    
       0.5000      0.5000      0.5000      0.5000      0.5000      0.5000       0.000       0.000       0.000       0.000    
        0.000       0.000    
  64    0.000       0.000       0.000       0.000       0.000       0.000       0.000       0.000       0.000       0.000    
        0.000       0.000       0.000       0.000       0.000       0.000       0.000       0.000       0.000       0.000    
        0.000       0.000       0.000       0.000       0.000       0.000       0.000       0.000       0.000       0.000    
        0.000       0.000       0.000       0.000      0.5000      0.5000      0.5000      0.5000      0.5000      0.5000    
       0.5000      0.5000      0.5000      0.5000      0.5000      0.5000      0.5000       0.000       0.000       0.000    
        0.000       0.000    
  65    0.000       0.000       0.000       0.000       0.000       0.000       0.000       0.000       0.000       0.000    
        0.000       0.000       0.000       0.000       0.000       0.000       0.000       0.000       0.000       0.000    
        0.000       0.000       0.000       0.000       0.000       0.000       0.000       0.000       0.000       0.000    
        0.000       0.000       0.000       0.000       0.000      0.5000      0.5000      0.5000      0.5000      0.5000    
       0.5000      0.5000      0.5000      0.5000      0.5000      0.5000       0.000       0.000       0.000       0.000    
        0.000       0.000    
  66    0.000       0.000       0.000       0.000       0.000       0.000       0.000       0.000       0.000       0.000    
        0.000       0.000       0.000       0.000       0.000       0.000       0.000       0.000       0.000       0.000    
        0.000       0.000       0.000       0.000       0.000       0.000       0.000       0.000       0.000       0.000    
        0.000       0.000       0.000       0.000       0.000       0.000       0.000      0.5000      0.5000      0.5000    
       0.5000      0.5000      0.5000      0.5000      0.5000      0.5000       0.000       0.000       0.000       0.000    
        0.000       0.000    
  67    0.000       0.000       0.000       0.000       0.000       0.000       0.000       0.000       0.000       0.000    
        0.000       0.000       0.000       0.000       0.000       0.000       0.000       0.000       0.000       0.000    
        0.000       0.000       0.000       0.000       0.000       0.000       0.000       0.000       0.000       0.000    
        0.000       0.000       0.000       0.000       0.000       0.000       0.000       0.000       0.000      0.5000    
       0.5000      0.5000      0.5000      0.5000      0.5000       0.000       0.000       0.000       0.000       0.000    
        0.000       0.000    
  68    0.000       0.000       0.000       0.000       0.000       0.000       0.000       0.000       0.000       0.000    
        0.000       0.000       0.000       0.000       0.000       0.000       0.000       0.000       0.000       0.000    
        0.000       0.000       0.000       0.000       0.000       0.000       0.000       0.000       0.000       0.000    
        0.000       0.000       0.000       0.000       0.000       0.000       0.000       0.000       0.000       0.000    
        0.000      0.5000      0.5000       0.000       0.000       0.000       0.000       0.000       0.000       0.000    
        0.000       0.000    

 BOUND. NO. LAYER   ROW   COL     STAGE      CONDUCTANCE         IFACE           
 --------------------------------------------------------------------------------
      1      1      6      1       0.000          0.1000E-02       0.000    
      2      1      7      1       0.000          0.1000E-02       0.000    
      3      1      8      1       0.000          0.1000E-02       0.000    
      4      1      9      1       0.000          0.1000E-02       0.000    
      5      1      6      2       0.000          0.1000E-02       0.000    
      6      1      7      2       0.000          0.1000E-02       0.000    
      7      1      8      2       0.000          0.1000E-02       0.000    
      8      1      9      2       0.000          0.1000E-02       0.000    
      9      1     10      2       0.000          0.1000E-02       0.000    
     10      1     11      2       0.000          0.1000E-02       0.000    
     11      1     12      2       0.000          0.1000E-02       0.000    
     12      1     13      2       0.000          0.1000E-02       0.000    
     13      1     14      2       0.000          0.1000E-02       0.000    
     14      1     15      2       0.000          0.1000E-02       0.000    
     15      1     16      2       0.000          0.1000E-02       0.000    
     16      1     17      2       0.000          0.1000E-02       0.000    
     17      1     18      2       0.000          0.1000E-02       0.000    
     18      1     19      2       0.000          0.1000E-02       0.000    
     19      1     20      2       0.000          0.1000E-02       0.000    
     20      1     21      2       0.000          0.1000E-02       0.000    
     21      1     22      2       0.000          0.1000E-02       0.000    
     22      1     23      2       0.000          0.1000E-02       0.000    
     23      1      6      3       0.000          0.1000E-02       0.000    
     24      1      7      3       0.000          0.1000E-02       0.000    
     25      1      8      3       0.000          0.1000E-02       0.000    
     26      1      9      3       0.000          0.1000E-02       0.000    
     27      1     10      3       0.000          0.1000E-02       0.000    
     28      1     11      3       0.000          0.1000E-02       0.000    
     29      1     12      3       0.000          0.1000E-02       0.000    
     30      1     13      3       0.000          0.1000E-02       0.000    
     31      1     14      3       0.000          0.1000E-02       0.000    
     32      1     15      3       0.000          0.1000E-02       0.000    
     33      1     16      3       0.000          0.1000E-02       0.000    
     34      1     17      3       0.000          0.1000E-02       0.000    
     35      1     18      3       0.000          0.1000E-02       0.000    
     36      1     19      3       0.000          0.1000E-02       0.000    
     37      1     20      3       0.000          0.1000E-02       0.000    
     38      1     21      3       0.000          0.1000E-02       0.000    
     39      1     22      3       0.000          0.1000E-02       0.000    
     40      1     23      3       0.000          0.1000E-02       0.000    
     41      1     24      3       0.000          0.1000E-02       0.000    
     42      1     25      3       0.000          0.1000E-02       0.000    
     43      1     26      3       0.000          0.1000E-02       0.000    
     44      1     27      3       0.000          0.1000E-02       0.000    
     45      1     28      3       0.000          0.1000E-02       0.000    
     46      1     29      3       0.000          0.1000E-02       0.000    
     47      1     30      3       0.000          0.1000E-02       0.000    
     48      1     31      3       0.000          0.1000E-02       0.000    
     49      1     32      3       0.000          0.1000E-02       0.000    
     50      1     33      3       0.000          0.1000E-02       0.000    
     51      1     34      3       0.000          0.1000E-02       0.000    
     52      1      6      4       0.000          0.1000E-02       0.000    
     53      1      7      4       0.000          0.1000E-02       0.000    
     54      1      8      4       0.000          0.1000E-02       0.000    
     55      1      9      4       0.000          0.1000E-02       0.000    
     56      1     10      4       0.000          0.1000E-02       0.000    
     57      1     11      4       0.000          0.1000E-02       0.000    
     58      1     12      4       0.000          0.1000E-02       0.000    
     59      1     13      4       0.000          0.1000E-02       0.000    
     60      1     14      4       0.000          0.1000E-02       0.000    
     61      1     15      4       0.000          0.1000E-02       0.000    
     62      1     16      4       0.000          0.1000E-02       0.000    
     63      1     17      4       0.000          0.1000E-02       0.000    
     64      1     18      4       0.000          0.1000E-02       0.000    
     65      1     19      4       0.000          0.1000E-02       0.000    
     66      1     20      4       0.000          0.1000E-02       0.000    
     67      1     21      4       0.000          0.1000E-02       0.000    
     68      1     22      4       0.000          0.1000E-02       0.000    
     69      1     23      4       0.000          0.1000E-02       0.000    
     70      1     24      4       0.000          0.1000E-02       0.000    
     71      1     25      4       0.000          0.1000E-02       0.000    
     72      1     26      4       0.000          0.1000E-02       0.000    
     73      1     27      4       0.000          0.1000E-02       0.000    
     74      1     28      4       0.000          0.1000E-02       0.000    
     75      1     29      4       0.000          0.1000E-02       0.000    
     76      1     30      4       0.000          0.1000E-02       0.000    
     77      1     31      4       0.000          0.1000E-02       0.000    
     78      1     32      4       0.000          0.1000E-02       0.000    
     79      1     33      4       0.000          0.1000E-02       0.000    
     80      1     34      4       0.000          0.1000E-02       0.000    
     81      1     15      5       0.000          0.1000E-02       0.000    
     82      1     16      5       0.000          0.1000E-02       0.000    
     83      1     17      5       0.000          0.1000E-02       0.000    
     84      1     18      5       0.000          0.1000E-02       0.000    
     85      1     19      5       0.000          0.1000E-02       0.000    
     86      1     20      5       0.000          0.1000E-02       0.000    
     87      1     21      5       0.000          0.1000E-02       0.000    
     88      1     22      5       0.000          0.1000E-02       0.000    
     89      1     23      5       0.000          0.1000E-02       0.000    
     90      1     24      5       0.000          0.1000E-02       0.000    
     91      1     25      5       0.000          0.1000E-02       0.000    
     92      1     26      5       0.000          0.1000E-02       0.000    
     93      1     27      5       0.000          0.1000E-02       0.000    
     94      1     28      5       0.000          0.1000E-02       0.000    
     95      1     29      5       0.000          0.1000E-02       0.000    
     96      1     30      5       0.000          0.1000E-02       0.000    
     97      1     31      5       0.000          0.1000E-02       0.000    
     98      1     32      5       0.000          0.1000E-02       0.000    
     99      1     33      5       0.000          0.1000E-02       0.000    
    100      1     34      5       0.000          0.1000E-02       0.000    
    101      1     23      6       0.000          0.1000E-02       0.000    
    102      1     24      6       0.000          0.1000E-02       0.000    
    103      1     25      6       0.000          0.1000E-02       0.000    
    104      1     26      6       0.000          0.1000E-02       0.000    
    105      1     27      6       0.000          0.1000E-02       0.000    
    106      1     28      6       0.000          0.1000E-02       0.000    
    107      1     29      6       0.000          0.1000E-02       0.000    
    108      1     30      6       0.000          0.1000E-02       0.000    
    109      1     31      6       0.000          0.1000E-02       0.000    

    109 GHB CELLS



                           RECHARGE
 READING ON UNIT   24 WITH FORMAT: (FREE)              

            1           2           3           4           5           6           7           8           9          10
           11          12          13          14          15          16          17          18          19          20
           21          22          23          24          25          26          27          28          29          30
           31          32          33          34          35          36          37          38          39          40
           41          42          43          44          45          46          47          48          49          50
           51          52
 ........................................................................................................................
   1    0.000       0.000       0.000       0.000       0.000       0.000       0.000       0.000       0.000       0.000    
        0.000       0.000       0.000       0.000       0.000       0.000       0.000       0.000       0.000       0.000    
       3.1700E-09  3.1700E-09  3.1700E-09  3.1700E-09  3.1700E-09  3.1700E-09  3.1700E-09  3.1700E-09  3.1700E-09   0.000    
        0.000       0.000       0.000       0.000       0.000       0.000       0.000       0.000       0.000       0.000    
        0.000       0.000       0.000       0.000       0.000       0.000       0.000       0.000       0.000       0.000    
        0.000       0.000    
   2    0.000       0.000       0.000       0.000       0.000       0.000       0.000       0.000       0.000       0.000    
        0.000       0.000       0.000       0.000       0.000       0.000       0.000       0.000       0.000      3.1700E-09
       3.1700E-09  3.1700E-09  3.1700E-09  3.1700E-09  3.1700E-09  3.1700E-09  3.1700E-09  3.1700E-09  3.1700E-09  3.1700E-09
       3.1700E-09   0.000       0.000       0.000       0.000       0.000       0.000       0.000       0.000       0.000    
        0.000       0.000       0.000       0.000       0.000       0.000       0.000       0.000       0.000       0.000    
        0.000       0.000    
   3    0.000       0.000       0.000       0.000       0.000       0.000       0.000       0.000       0.000       0.000    
        0.000       0.000       0.000       0.000       0.000       0.000       0.000      3.1700E-09  3.1700E-09  3.1700E-09
       3.1700E-09  3.1700E-09  3.1700E-09  3.1700E-09  3.1700E-09  3.1700E-09  3.1700E-09  3.1700E-09  3.1700E-09  3.1700E-09
       3.1700E-09  3.1700E-09  3.1700E-09   0.000       0.000       0.000       0.000       0.000       0.000       0.000    
        0.000       0.000       0.000       0.000       0.000       0.000       0.000       0.000       0.000       0.000    
        0.000       0.000    
   4    0.000       0.000       0.000       0.000       0.000       0.000       0.000       0.000       0.000       0.000    
       3.1700E-09  3.1700E-09  3.1700E-09  3.1700E-09  3.1700E-09  3.1700E-09  3.1700E-09  3.1700E-09  3.1700E-09  3.1700E-09
       3.1700E-09  3.1700E-09  3.1700E-09  3.1700E-09  3.1700E-09  3.1700E-09  3.1700E-09  3.1700E-09  3.1700E-09  3.1700E-09
       3.1700E-09  3.1700E-09  3.1700E-09  3.1700E-09  3.1700E-09   0.000       0.000       0.000       0.000       0.000    
        0.000       0.000       0.000       0.000       0.000       0.000       0.000       0.000       0.000       0.000    
        0.000       0.000    
   5    0.000       0.000       0.000       0.000       0.000       0.000       0.000      3.1700E-09  3.1700E-09  3.1700E-09
       3.1700E-09  3.1700E-09  3.1700E-09  3.1700E-09  3.1700E-09  3.1700E-09  3.1700E-09  3.1700E-09  3.1700E-09  3.1700E-09
       3.1700E-09  3.1700E-09  3.1700E-09  3.1700E-09  3.1700E-09  3.1700E-09  3.1700E-09  3.1700E-09  3.1700E-09  3.1700E-09
       3.1700E-09  3.1700E-09  3.1700E-09  3.1700E-09  3.1700E-09  3.1700E-09   0.000       0.000       0.000       0.000    
        0.000       0.000       0.000       0.000       0.000       0.000       0.000       0.000       0.000       0.000    
        0.000       0.000    
   6    0.000       0.000       0.000       0.000       0.000       0.000       0.000      3.1700E-09  3.1700E-09  3.1700E-09
       3.1700E-09  3.1700E-09  3.1700E-09  3.1700E-09  3.1700E-09  3.1700E-09  3.1700E-09  3.1700E-09  3.1700E-09  3.1700E-09
       3.1700E-09  3.1700E-09  3.1700E-09  3.1700E-09  3.1700E-09  3.1700E-09  3.1700E-09  3.1700E-09  3.1700E-09  3.1700E-09
       3.1700E-09  3.1700E-09  3.1700E-09  3.1700E-09  3.1700E-09  3.1700E-09   0.000       0.000       0.000       0.000    
        0.000       0.000       0.000       0.000       0.000       0.000       0.000       0.000       0.000       0.000    
        0.000       0.000    
   7    0.000       0.000       0.000       0.000       0.000       0.000       0.000      3.1700E-09  3.1700E-09  3.1700E-09
       3.1700E-09  3.1700E-09  3.1700E-09  3.1700E-09  3.1700E-09  3.1700E-09  3.1700E-09  3.1700E-09  3.1700E-09  3.1700E-09
       3.1700E-09  3.1700E-09  3.1700E-09  3.1700E-09  3.1700E-09  3.1700E-09  3.1700E-09  3.1700E-09  3.1700E-09  3.1700E-09
       3.1700E-09  3.1700E-09  3.1700E-09  3.1700E-09  3.1700E-09  3.1700E-09   0.000       0.000       0.000       0.000    
        0.000       0.000       0.000       0.000       0.000       0.000       0.000       0.000       0.000       0.000    
        0.000       0.000    
   8    0.000       0.000       0.000       0.000       0.000       0.000       0.000      3.1700E-09  3.1700E-09  3.1700E-09
       3.1700E-09  3.1700E-09  3.1700E-09  3.1700E-09  3.1700E-09  3.1700E-09  3.1700E-09  3.1700E-09  3.1700E-09  3.1700E-09
       3.1700E-09  3.1700E-09  3.1700E-09  3.1700E-09  3.1700E-09  3.1700E-09  3.1700E-09  3.1700E-09  3.1700E-09  3.1700E-09
       3.1700E-09  3.1700E-09  3.1700E-09  3.1700E-09  3.1700E-09  3.1700E-09   0.000       0.000       0.000       0.000    
        0.000       0.000       0.000       0.000       0.000       0.000       0.000       0.000       0.000       0.000    
        0.000       0.000    
   9    0.000       0.000       0.000       0.000       0.000       0.000       0.000      3.1700E-09  3.1700E-09  3.1700E-09
       3.1700E-09  3.1700E-09  3.1700E-09  3.1700E-09  3.1700E-09  3.1700E-09  3.1700E-09  3.1700E-09  3.1700E-09  3.1700E-09
       3.1700E-09  3.1700E-09  3.1700E-09  3.1700E-09  3.1700E-09  3.1700E-09  3.1700E-09  3.1700E-09  3.1700E-09  3.1700E-09
       3.1700E-09  3.1700E-09  3.1700E-09  3.1700E-09  3.1700E-09   0.000       0.000       0.000       0.000       0.000    
        0.000       0.000       0.000       0.000       0.000       0.000       0.000       0.000       0.000       0.000    
        0.000       0.000    
  10    0.000       0.000       0.000       0.000       0.000       0.000       0.000      3.1700E-09  3.1700E-09  3.1700E-09
       3.1700E-09  3.1700E-09  3.1700E-09  3.1700E-09  3.1700E-09  3.1700E-09  3.1700E-09  3.1700E-09  3.1700E-09  3.1700E-09
       3.1700E-09  3.1700E-09  3.1700E-09  3.1700E-09  3.1700E-09  3.1700E-09  3.1700E-09  3.1700E-09  3.1700E-09  3.1700E-09
       3.1700E-09  3.1700E-09  3.1700E-09  3.1700E-09  3.1700E-09   0.000       0.000       0.000       0.000       0.000    
        0.000       0.000       0.000       0.000       0.000       0.000       0.000       0.000       0.000       0.000    
        0.000       0.000    
  11    0.000       0.000       0.000       0.000       0.000       0.000       0.000      3.1700E-09  3.1700E-09  3.1700E-09
       3.1700E-09  3.1700E-09  3.1700E-09  3.1700E-09  3.1700E-09  3.1700E-09  3.1700E-09  3.1700E-09  3.1700E-09  3.1700E-09
       3.1700E-09  3.1700E-09  3.1700E-09  3.1700E-09  3.1700E-09  3.1700E-09  3.1700E-09  3.1700E-09  3.1700E-09  3.1700E-09
       3.1700E-09  3.1700E-09  3.1700E-09  3.1700E-09  3.1700E-09   0.000       0.000       0.000       0.000       0.000    
        0.000       0.000       0.000       0.000       0.000       0.000       0.000       0.000       0.000       0.000    
        0.000       0.000    
  12    0.000       0.000       0.000       0.000       0.000       0.000       0.000      3.1700E-09  3.1700E-09  3.1700E-09
       3.1700E-09  3.1700E-09  3.1700E-09  3.1700E-09  3.1700E-09  3.1700E-09  3.1700E-09  3.1700E-09  3.1700E-09  3.1700E-09
       3.1700E-09  3.1700E-09  3.1700E-09  3.1700E-09  3.1700E-09  3.1700E-09  3.1700E-09  3.1700E-09  3.1700E-09  3.1700E-09
       3.1700E-09  3.1700E-09  3.1700E-09  3.1700E-09  3.1700E-09   0.000       0.000       0.000       0.000       0.000    
        0.000       0.000       0.000       0.000       0.000       0.000       0.000       0.000       0.000       0.000    
        0.000       0.000    
  13    0.000       0.000       0.000       0.000       0.000       0.000       0.000      3.1700E-09  3.1700E-09  3.1700E-09
       3.1700E-09  3.1700E-09  3.1700E-09  3.1700E-09  3.1700E-09  3.1700E-09  3.1700E-09  3.1700E-09  3.1700E-09  3.1700E-09
       3.1700E-09  3.1700E-09  3.1700E-09  3.1700E-09  3.1700E-09  3.1700E-09  3.1700E-09  3.1700E-09  3.1700E-09  3.1700E-09
       3.1700E-09  3.1700E-09  3.1700E-09  3.1700E-09  3.1700E-09   0.000       0.000       0.000       0.000       0.000    
        0.000       0.000       0.000       0.000       0.000       0.000       0.000       0.000       0.000       0.000    
        0.000       0.000    
  14    0.000       0.000       0.000       0.000       0.000       0.000       0.000      3.1700E-09  3.1700E-09  3.1700E-09
       3.1700E-09  3.1700E-09  3.1700E-09  3.1700E-09  3.1700E-09  3.1700E-09  3.1700E-09  3.1700E-09  3.1700E-09  3.1700E-09
       3.1700E-09  3.1700E-09  3.1700E-09  3.1700E-09  3.1700E-09  3.1700E-09  3.1700E-09  3.1700E-09  3.1700E-09  3.1700E-09
       3.1700E-09  3.1700E-09  3.1700E-09  3.1700E-09  3.1700E-09   0.000       0.000       0.000       0.000       0.000    
        0.000       0.000       0.000       0.000       0.000       0.000       0.000       0.000       0.000       0.000    
        0.000       0.000    
  15    0.000       0.000       0.000       0.000       0.000       0.000       0.000      3.1700E-09  3.1700E-09  3.1700E-09
       3.1700E-09  3.1700E-09  3.1700E-09  3.1700E-09  3.1700E-09  3.1700E-09  3.1700E-09  3.1700E-09  3.1700E-09  3.1700E-09
       3.1700E-09  3.1700E-09  3.1700E-09  3.1700E-09  3.1700E-09  3.1700E-09  3.1700E-09  3.1700E-09  3.1700E-09  3.1700E-09
       3.1700E-09  3.1700E-09  3.1700E-09  3.1700E-09  3.1700E-09  3.1700E-09   0.000       0.000       0.000       0.000    
        0.000       0.000       0.000       0.000       0.000       0.000       0.000       0.000       0.000       0.000    
        0.000       0.000    
  16    0.000       0.000       0.000       0.000       0.000       0.000       0.000      3.1700E-09  3.1700E-09  3.1700E-09
       3.1700E-09  3.1700E-09  3.1700E-09  3.1700E-09  3.1700E-09  3.1700E-09  3.1700E-09  3.1700E-09  3.1700E-09  3.1700E-09
       3.1700E-09  3.1700E-09  3.1700E-09  3.1700E-09  3.1700E-09  3.1700E-09  3.1700E-09  3.1700E-09  3.1700E-09  3.1700E-09
       3.1700E-09  3.1700E-09  3.1700E-09  3.1700E-09  3.1700E-09  3.1700E-09  3.1700E-09   0.000       0.000       0.000    
        0.000       0.000       0.000       0.000       0.000       0.000       0.000       0.000       0.000       0.000    
        0.000       0.000    
  17    0.000       0.000       0.000       0.000       0.000       0.000       0.000      3.1700E-09  3.1700E-09  3.1700E-09
       3.1700E-09  3.1700E-09  3.1700E-09  3.1700E-09  3.1700E-09  3.1700E-09  3.1700E-09  3.1700E-09  3.1700E-09  3.1700E-09
       3.1700E-09  3.1700E-09  3.1700E-09  3.1700E-09  3.1700E-09  3.1700E-09  3.1700E-09  3.1700E-09  3.1700E-09  3.1700E-09
       3.1700E-09  3.1700E-09  3.1700E-09  3.1700E-09  3.1700E-09  3.1700E-09  3.1700E-09  3.1700E-09  3.1700E-09  3.1700E-09
        0.000       0.000       0.000       0.000       0.000       0.000       0.000       0.000       0.000       0.000    
        0.000       0.000    
  18    0.000       0.000       0.000       0.000       0.000       0.000       0.000      3.1700E-09  3.1700E-09  3.1700E-09
       3.1700E-09  3.1700E-09  3.1700E-09  3.1700E-09  3.1700E-09  3.1700E-09  3.1700E-09  3.1700E-09  3.1700E-09  3.1700E-09
       3.1700E-09  3.1700E-09  3.1700E-09  3.1700E-09  3.1700E-09  3.1700E-09  3.1700E-09  3.1700E-09  3.1700E-09  3.1700E-09
       3.1700E-09  3.1700E-09  3.1700E-09  3.1700E-09  3.1700E-09  3.1700E-09  3.1700E-09  3.1700E-09  3.1700E-09  3.1700E-09
       3.1700E-09  3.1700E-09  3.1700E-09  3.1700E-09   0.000       0.000       0.000       0.000       0.000       0.000    
        0.000       0.000    
  19    0.000       0.000       0.000       0.000       0.000       0.000       0.000      3.1700E-09  3.1700E-09  3.1700E-09
       3.1700E-09  3.1700E-09  3.1700E-09  3.1700E-09  3.1700E-09  3.1700E-09  3.1700E-09  3.1700E-09  3.1700E-09  3.1700E-09
       3.1700E-09  3.1700E-09  3.1700E-09  3.1700E-09  3.1700E-09  3.1700E-09  3.1700E-09  3.1700E-09  3.1700E-09  3.1700E-09
       3.1700E-09  3.1700E-09  3.1700E-09  3.1700E-09  3.1700E-09  3.1700E-09  3.1700E-09  3.1700E-09  3.1700E-09  3.1700E-09
       3.1700E-09  3.1700E-09  3.1700E-09  3.1700E-09  3.1700E-09  3.1700E-09  3.1700E-09  3.1700E-09  3.1700E-09  3.1700E-09
       3.1700E-09  3.1700E-09
  20    0.000       0.000       0.000       0.000       0.000       0.000       0.000      3.1700E-09  3.1700E-09  3.1700E-09
       3.1700E-09  3.1700E-09  3.1700E-09  3.1700E-09  3.1700E-09  3.1700E-09  3.1700E-09  3.1700E-09  3.1700E-09  3.1700E-09
       3.1700E-09  3.1700E-09  3.1700E-09  3.1700E-09  3.1700E-09  3.1700E-09  3.1700E-09  3.1700E-09  3.1700E-09  3.1700E-09
       3.1700E-09  3.1700E-09  3.1700E-09  3.1700E-09  3.1700E-09  3.1700E-09  3.1700E-09  3.1700E-09  3.1700E-09  3.1700E-09
       3.1700E-09  3.1700E-09  3.1700E-09  3.1700E-09  3.1700E-09  3.1700E-09  3.1700E-09  3.1700E-09  3.1700E-09  3.1700E-09
       3.1700E-09  3.1700E-09
  21    0.000       0.000       0.000       0.000       0.000       0.000       0.000      3.1700E-09  3.1700E-09  3.1700E-09
       3.1700E-09  3.1700E-09  3.1700E-09  3.1700E-09  3.1700E-09  3.1700E-09  3.1700E-09  3.1700E-09  3.1700E-09  3.1700E-09
       3.1700E-09  3.1700E-09  3.1700E-09  3.1700E-09  3.1700E-09  3.1700E-09  3.1700E-09  3.1700E-09  3.1700E-09  3.1700E-09
       3.1700E-09  3.1700E-09  3.1700E-09  3.1700E-09  3.1700E-09  3.1700E-09  3.1700E-09  3.1700E-09  3.1700E-09  3.1700E-09
       3.1700E-09  3.1700E-09  3.1700E-09  3.1700E-09  3.1700E-09  3.1700E-09  3.1700E-09  3.1700E-09  3.1700E-09  3.1700E-09
       3.1700E-09   0.000    
  22    0.000       0.000       0.000       0.000       0.000       0.000       0.000      3.1700E-09  3.1700E-09  3.1700E-09
       3.1700E-09  3.1700E-09  3.1700E-09  3.1700E-09  3.1700E-09  3.1700E-09  3.1700E-09  3.1700E-09  3.1700E-09  3.1700E-09
       3.1700E-09  3.1700E-09  3.1700E-09  3.1700E-09  3.1700E-09  3.1700E-09  3.1700E-09  3.1700E-09  3.1700E-09  3.1700E-09
       3.1700E-09  3.1700E-09  3.1700E-09  3.1700E-09  3.1700E-09  3.1700E-09   0.000      3.1700E-09  3.1700E-09  3.1700E-09
       3.1700E-09  3.1700E-09  3.1700E-09  3.1700E-09  3.1700E-09  3.1700E-09  3.1700E-09  3.1700E-09  3.1700E-09   0.000    
        0.000       0.000    
  23    0.000       0.000       0.000       0.000       0.000       0.000       0.000      3.1700E-09  3.1700E-09  3.1700E-09
       3.1700E-09  3.1700E-09  3.1700E-09  3.1700E-09  3.1700E-09  3.1700E-09  3.1700E-09  3.1700E-09  3.1700E-09  3.1700E-09
       3.1700E-09  3.1700E-09  3.1700E-09  3.1700E-09  3.1700E-09  3.1700E-09  3.1700E-09  3.1700E-09  3.1700E-09  3.1700E-09
       3.1700E-09  3.1700E-09  3.1700E-09  3.1700E-09  3.1700E-09  3.1700E-09  3.1700E-09   0.000       0.000       0.000    
       3.1700E-09  3.1700E-09  3.1700E-09  3.1700E-09  3.1700E-09  3.1700E-09  3.1700E-09  3.1700E-09   0.000       0.000    
        0.000       0.000    
  24    0.000       0.000       0.000       0.000       0.000       0.000       0.000      3.1700E-09  3.1700E-09  3.1700E-09
       3.1700E-09  3.1700E-09  3.1700E-09  3.1700E-09  3.1700E-09  3.1700E-09  3.1700E-09  3.1700E-09  3.1700E-09  3.1700E-09
       3.1700E-09  3.1700E-09  3.1700E-09  3.1700E-09  3.1700E-09  3.1700E-09  3.1700E-09  3.1700E-09  3.1700E-09  3.1700E-09
       3.1700E-09  3.1700E-09  3.1700E-09  3.1700E-09  3.1700E-09  3.1700E-09  3.1700E-09   0.000       0.000       0.000    
        0.000       0.000       0.000       0.000       0.000       0.000      3.1700E-09   0.000       0.000       0.000    
        0.000       0.000    
  25    0.000       0.000       0.000       0.000       0.000       0.000       0.000      3.1700E-09  3.1700E-09  3.1700E-09
       3.1700E-09  3.1700E-09  3.1700E-09  3.1700E-09  3.1700E-09  3.1700E-09  3.1700E-09  3.1700E-09  3.1700E-09  3.1700E-09
       3.1700E-09  3.1700E-09  3.1700E-09  3.1700E-09  3.1700E-09  3.1700E-09  3.1700E-09  3.1700E-09  3.1700E-09  3.1700E-09
       3.1700E-09  3.1700E-09  3.1700E-09  3.1700E-09  3.1700E-09  3.1700E-09  3.1700E-09   0.000       0.000       0.000    
        0.000       0.000       0.000       0.000       0.000       0.000       0.000       0.000       0.000       0.000    
        0.000       0.000    
  26    0.000       0.000       0.000       0.000       0.000       0.000       0.000      3.1700E-09  3.1700E-09  3.1700E-09
       3.1700E-09  3.1700E-09  3.1700E-09  3.1700E-09  3.1700E-09  3.1700E-09  3.1700E-09  3.1700E-09  3.1700E-09  3.1700E-09
       3.1700E-09  3.1700E-09  3.1700E-09  3.1700E-09  3.1700E-09  3.1700E-09  3.1700E-09  3.1700E-09  3.1700E-09  3.1700E-09
       3.1700E-09  3.1700E-09  3.1700E-09  3.1700E-09  3.1700E-09  3.1700E-09  3.1700E-09   0.000       0.000       0.000    
        0.000       0.000       0.000       0.000       0.000       0.000       0.000       0.000       0.000       0.000    
        0.000       0.000    
  27    0.000       0.000       0.000       0.000       0.000       0.000       0.000       0.000      3.1700E-09  3.1700E-09
       3.1700E-09  3.1700E-09  3.1700E-09  3.1700E-09  3.1700E-09  3.1700E-09  3.1700E-09  3.1700E-09  3.1700E-09  3.1700E-09
       3.1700E-09  3.1700E-09  3.1700E-09  3.1700E-09  3.1700E-09  3.1700E-09  3.1700E-09  3.1700E-09  3.1700E-09  3.1700E-09
       3.1700E-09  3.1700E-09  3.1700E-09  3.1700E-09  3.1700E-09  3.1700E-09  3.1700E-09   0.000       0.000       0.000    
        0.000       0.000       0.000       0.000       0.000       0.000       0.000       0.000       0.000       0.000    
        0.000       0.000    
  28    0.000       0.000       0.000       0.000       0.000       0.000       0.000       0.000      3.1700E-09  3.1700E-09
       3.1700E-09  3.1700E-09  3.1700E-09  3.1700E-09  3.1700E-09  3.1700E-09  3.1700E-09  3.1700E-09  3.1700E-09  3.1700E-09
       3.1700E-09  3.1700E-09  3.1700E-09  3.1700E-09  3.1700E-09  3.1700E-09  3.1700E-09  3.1700E-09  3.1700E-09  3.1700E-09
       3.1700E-09  3.1700E-09  3.1700E-09  3.1700E-09  3.1700E-09  3.1700E-09  3.1700E-09   0.000       0.000       0.000    
        0.000       0.000       0.000       0.000       0.000       0.000       0.000       0.000       0.000       0.000    
        0.000       0.000    
  29    0.000       0.000       0.000       0.000       0.000       0.000       0.000       0.000      3.1700E-09  3.1700E-09
       3.1700E-09  3.1700E-09  3.1700E-09  3.1700E-09  3.1700E-09  3.1700E-09  3.1700E-09  3.1700E-09  3.1700E-09  3.1700E-09
       3.1700E-09  3.1700E-09  3.1700E-09  3.1700E-09  3.1700E-09  3.1700E-09  3.1700E-09  3.1700E-09  3.1700E-09  3.1700E-09
       3.1700E-09  3.1700E-09  3.1700E-09  3.1700E-09  3.1700E-09  3.1700E-09  3.1700E-09   0.000       0.000       0.000    
        0.000       0.000       0.000       0.000       0.000       0.000       0.000       0.000       0.000       0.000    
        0.000       0.000    
  30    0.000       0.000       0.000       0.000       0.000       0.000       0.000       0.000      3.1700E-09  3.1700E-09
       3.1700E-09  3.1700E-09  3.1700E-09  3.1700E-09  3.1700E-09  3.1700E-09  3.1700E-09  3.1700E-09  3.1700E-09  3.1700E-09
       3.1700E-09  3.1700E-09  3.1700E-09  3.1700E-09  3.1700E-09  3.1700E-09  3.1700E-09  3.1700E-09  3.1700E-09  3.1700E-09
       3.1700E-09  3.1700E-09  3.1700E-09  3.1700E-09  3.1700E-09  3.1700E-09   0.000       0.000       0.000       0.000    
        0.000       0.000       0.000       0.000       0.000       0.000       0.000       0.000       0.000       0.000    
        0.000       0.000    
  31    0.000       0.000       0.000       0.000       0.000       0.000       0.000       0.000      3.1700E-09  3.1700E-09
       3.1700E-09  3.1700E-09  3.1700E-09  3.1700E-09  3.1700E-09  3.1700E-09  3.1700E-09  3.1700E-09  3.1700E-09  3.1700E-09
       3.1700E-09  3.1700E-09  3.1700E-09  3.1700E-09  3.1700E-09  3.1700E-09  3.1700E-09  3.1700E-09  3.1700E-09  3.1700E-09
       3.1700E-09  3.1700E-09  3.1700E-09  3.1700E-09  3.1700E-09  3.1700E-09   0.000       0.000       0.000       0.000    
        0.000       0.000       0.000       0.000       0.000       0.000       0.000       0.000       0.000       0.000    
        0.000       0.000    
  32    0.000       0.000       0.000       0.000       0.000       0.000       0.000       0.000      3.1700E-09  3.1700E-09
       3.1700E-09  3.1700E-09  3.1700E-09  3.1700E-09  3.1700E-09  3.1700E-09  3.1700E-09  3.1700E-09  3.1700E-09  3.1700E-09
       3.1700E-09  3.1700E-09  3.1700E-09  3.1700E-09  3.1700E-09  3.1700E-09  3.1700E-09  3.1700E-09  3.1700E-09  3.1700E-09
       3.1700E-09  3.1700E-09  3.1700E-09  3.1700E-09  3.1700E-09  3.1700E-09   0.000       0.000       0.000       0.000    
        0.000       0.000       0.000       0.000       0.000       0.000       0.000       0.000       0.000       0.000    
        0.000       0.000    
  33    0.000       0.000       0.000       0.000       0.000       0.000       0.000       0.000      3.1700E-09  3.1700E-09
       3.1700E-09  3.1700E-09  3.1700E-09  3.1700E-09  3.1700E-09  3.1700E-09  3.1700E-09  3.1700E-09  3.1700E-09  3.1700E-09
       3.1700E-09  3.1700E-09  3.1700E-09  3.1700E-09  3.1700E-09  3.1700E-09  3.1700E-09  3.1700E-09  3.1700E-09  3.1700E-09
       3.1700E-09  3.1700E-09  3.1700E-09  3.1700E-09  3.1700E-09  3.1700E-09   0.000       0.000       0.000       0.000    
        0.000       0.000       0.000       0.000       0.000       0.000       0.000       0.000       0.000       0.000    
        0.000       0.000    
  34    0.000       0.000       0.000       0.000       0.000       0.000       0.000       0.000       0.000      3.1700E-09
       3.1700E-09  3.1700E-09  3.1700E-09  3.1700E-09  3.1700E-09  3.1700E-09  3.1700E-09  3.1700E-09  3.1700E-09  3.1700E-09
       3.1700E-09  3.1700E-09  3.1700E-09  3.1700E-09  3.1700E-09  3.1700E-09  3.1700E-09  3.1700E-09  3.1700E-09  3.1700E-09
       3.1700E-09  3.1700E-09  3.1700E-09  3.1700E-09  3.1700E-09  3.1700E-09   0.000       0.000       0.000       0.000    
        0.000       0.000       0.000       0.000       0.000       0.000       0.000       0.000       0.000       0.000    
        0.000       0.000    
  35    0.000       0.000       0.000       0.000       0.000       0.000       0.000       0.000       0.000      3.1700E-09
       3.1700E-09  3.1700E-09  3.1700E-09  3.1700E-09  3.1700E-09  3.1700E-09  3.1700E-09  3.1700E-09  3.1700E-09  3.1700E-09
       3.1700E-09  3.1700E-09  3.1700E-09  3.1700E-09  3.1700E-09  3.1700E-09  3.1700E-09  3.1700E-09  3.1700E-09  3.1700E-09
       3.1700E-09  3.1700E-09  3.1700E-09  3.1700E-09  3.1700E-09  3.1700E-09   0.000       0.000       0.000       0.000    
        0.000       0.000       0.000       0.000       0.000       0.000       0.000       0.000       0.000       0.000    
        0.000       0.000    
  36    0.000       0.000       0.000       0.000       0.000       0.000       0.000       0.000       0.000       0.000    
       3.1700E-09  3.1700E-09  3.1700E-09  3.1700E-09  3.1700E-09  3.1700E-09  3.1700E-09  3.1700E-09  3.1700E-09  3.1700E-09
       3.1700E-09  3.1700E-09  3.1700E-09  3.1700E-09  3.1700E-09  3.1700E-09  3.1700E-09  3.1700E-09  3.1700E-09  3.1700E-09
       3.1700E-09  3.1700E-09  3.1700E-09  3.1700E-09  3.1700E-09  3.1700E-09   0.000       0.000       0.000       0.000    
        0.000       0.000       0.000       0.000       0.000       0.000       0.000       0.000       0.000       0.000    
        0.000       0.000    
  37    0.000       0.000       0.000       0.000       0.000       0.000       0.000       0.000       0.000       0.000    
       3.1700E-09  3.1700E-09  3.1700E-09  3.1700E-09  3.1700E-09  3.1700E-09  3.1700E-09  3.1700E-09  3.1700E-09  3.1700E-09
       3.1700E-09  3.1700E-09  3.1700E-09  3.1700E-09  3.1700E-09  3.1700E-09  3.1700E-09  3.1700E-09  3.1700E-09  3.1700E-09
       3.1700E-09  3.1700E-09  3.1700E-09  3.1700E-09  3.1700E-09  3.1700E-09   0.000       0.000       0.000       0.000    
        0.000       0.000       0.000       0.000       0.000       0.000       0.000       0.000       0.000       0.000    
        0.000       0.000    
  38    0.000       0.000       0.000       0.000       0.000       0.000       0.000       0.000       0.000       0.000    
        0.000       0.000       0.000      3.1700E-09  3.1700E-09  3.1700E-09  3.1700E-09  3.1700E-09  3.1700E-09  3.1700E-09
       3.1700E-09  3.1700E-09  3.1700E-09  3.1700E-09  3.1700E-09  3.1700E-09  3.1700E-09  3.1700E-09  3.1700E-09  3.1700E-09
       3.1700E-09  3.1700E-09  3.1700E-09  3.1700E-09  3.1700E-09  3.1700E-09  3.1700E-09   0.000       0.000       0.000    
        0.000       0.000       0.000       0.000       0.000       0.000       0.000       0.000       0.000       0.000    
        0.000       0.000    
  39    0.000       0.000       0.000       0.000       0.000       0.000       0.000       0.000       0.000       0.000    
        0.000       0.000       0.000       0.000       0.000       0.000      3.1700E-09  3.1700E-09  3.1700E-09  3.1700E-09
       3.1700E-09  3.1700E-09  3.1700E-09  3.1700E-09  3.1700E-09  3.1700E-09  3.1700E-09  3.1700E-09  3.1700E-09  3.1700E-09
       3.1700E-09  3.1700E-09  3.1700E-09  3.1700E-09  3.1700E-09  3.1700E-09  3.1700E-09   0.000       0.000       0.000    
        0.000       0.000       0.000       0.000       0.000       0.000       0.000       0.000       0.000       0.000    
        0.000       0.000    
  40    0.000       0.000       0.000       0.000       0.000       0.000       0.000       0.000       0.000       0.000    
        0.000       0.000       0.000       0.000       0.000       0.000       0.000      3.1700E-09  3.1700E-09  3.1700E-09
       3.1700E-09  3.1700E-09  3.1700E-09  3.1700E-09  3.1700E-09  3.1700E-09  3.1700E-09  3.1700E-09  3.1700E-09  3.1700E-09
       3.1700E-09  3.1700E-09  3.1700E-09  3.1700E-09  3.1700E-09  3.1700E-09  3.1700E-09   0.000       0.000       0.000    
        0.000       0.000       0.000       0.000       0.000       0.000       0.000       0.000       0.000       0.000    
        0.000       0.000    
  41    0.000       0.000       0.000       0.000       0.000       0.000       0.000       0.000       0.000       0.000    
        0.000       0.000       0.000       0.000       0.000       0.000       0.000       0.000      3.1700E-09  3.1700E-09
       3.1700E-09  3.1700E-09  3.1700E-09  3.1700E-09  3.1700E-09  3.1700E-09  3.1700E-09  3.1700E-09  3.1700E-09  3.1700E-09
       3.1700E-09  3.1700E-09  3.1700E-09  3.1700E-09  3.1700E-09  3.1700E-09  3.1700E-09   0.000       0.000       0.000    
        0.000       0.000       0.000       0.000       0.000       0.000       0.000       0.000       0.000       0.000    
        0.000       0.000    
  42    0.000       0.000       0.000       0.000       0.000       0.000       0.000       0.000       0.000       0.000    
        0.000       0.000       0.000       0.000       0.000       0.000       0.000       0.000      3.1700E-09  3.1700E-09
       3.1700E-09  3.1700E-09  3.1700E-09  3.1700E-09  3.1700E-09  3.1700E-09  3.1700E-09  3.1700E-09  3.1700E-09  3.1700E-09
       3.1700E-09  3.1700E-09  3.1700E-09  3.1700E-09  3.1700E-09  3.1700E-09  3.1700E-09   0.000       0.000       0.000    
        0.000       0.000       0.000       0.000       0.000       0.000       0.000       0.000       0.000       0.000    
        0.000       0.000    
  43    0.000       0.000       0.000       0.000       0.000       0.000       0.000       0.000       0.000       0.000    
        0.000       0.000       0.000       0.000       0.000       0.000       0.000       0.000       0.000      3.1700E-09
       3.1700E-09  3.1700E-09  3.1700E-09  3.1700E-09  3.1700E-09  3.1700E-09  3.1700E-09  3.1700E-09  3.1700E-09  3.1700E-09
       3.1700E-09  3.1700E-09  3.1700E-09  3.1700E-09  3.1700E-09  3.1700E-09  3.1700E-09  3.1700E-09   0.000       0.000    
        0.000       0.000       0.000       0.000       0.000       0.000       0.000       0.000       0.000       0.000    
        0.000       0.000    
  44    0.000       0.000       0.000       0.000       0.000       0.000       0.000       0.000       0.000       0.000    
        0.000       0.000       0.000       0.000       0.000       0.000       0.000       0.000       0.000      3.1700E-09
       3.1700E-09  3.1700E-09  3.1700E-09  3.1700E-09  3.1700E-09  3.1700E-09  3.1700E-09  3.1700E-09  3.1700E-09  3.1700E-09
       3.1700E-09  3.1700E-09  3.1700E-09  3.1700E-09  3.1700E-09  3.1700E-09  3.1700E-09  3.1700E-09   0.000       0.000    
        0.000       0.000       0.000       0.000       0.000       0.000       0.000       0.000       0.000       0.000    
        0.000       0.000    
  45    0.000       0.000       0.000       0.000       0.000       0.000       0.000       0.000       0.000       0.000    
        0.000       0.000       0.000       0.000       0.000       0.000       0.000       0.000       0.000       0.000    
       3.1700E-09  3.1700E-09  3.1700E-09  3.1700E-09  3.1700E-09  3.1700E-09  3.1700E-09  3.1700E-09  3.1700E-09  3.1700E-09
       3.1700E-09  3.1700E-09  3.1700E-09  3.1700E-09  3.1700E-09  3.1700E-09  3.1700E-09  3.1700E-09   0.000       0.000    
        0.000       0.000       0.000       0.000       0.000       0.000       0.000       0.000       0.000       0.000    
        0.000       0.000    
  46    0.000       0.000       0.000       0.000       0.000       0.000       0.000       0.000       0.000       0.000    
        0.000       0.000       0.000       0.000       0.000       0.000       0.000       0.000       0.000       0.000    
       3.1700E-09  3.1700E-09  3.1700E-09  3.1700E-09  3.1700E-09  3.1700E-09  3.1700E-09  3.1700E-09  3.1700E-09  3.1700E-09
       3.1700E-09  3.1700E-09  3.1700E-09  3.1700E-09  3.1700E-09  3.1700E-09  3.1700E-09  3.1700E-09   0.000       0.000    
        0.000       0.000       0.000       0.000       0.000       0.000       0.000       0.000       0.000       0.000    
        0.000       0.000    
  47    0.000       0.000       0.000       0.000       0.000       0.000       0.000       0.000       0.000       0.000    
        0.000       0.000       0.000       0.000       0.000       0.000       0.000       0.000       0.000       0.000    
        0.000      3.1700E-09  3.1700E-09  3.1700E-09  3.1700E-09  3.1700E-09  3.1700E-09  3.1700E-09  3.1700E-09  3.1700E-09
       3.1700E-09  3.1700E-09  3.1700E-09  3.1700E-09  3.1700E-09  3.1700E-09  3.1700E-09  3.1700E-09   0.000       0.000    
        0.000       0.000       0.000       0.000       0.000       0.000       0.000       0.000       0.000       0.000    
        0.000       0.000    
  48    0.000       0.000       0.000       0.000       0.000       0.000       0.000       0.000       0.000       0.000    
        0.000       0.000       0.000       0.000       0.000       0.000       0.000       0.000       0.000       0.000    
        0.000      3.1700E-09  3.1700E-09  3.1700E-09  3.1700E-09  3.1700E-09  3.1700E-09  3.1700E-09  3.1700E-09  3.1700E-09
       3.1700E-09  3.1700E-09  3.1700E-09  3.1700E-09  3.1700E-09  3.1700E-09  3.1700E-09  3.1700E-09   0.000       0.000    
        0.000       0.000       0.000       0.000       0.000       0.000       0.000       0.000       0.000       0.000    
        0.000       0.000    
  49    0.000       0.000       0.000       0.000       0.000       0.000       0.000       0.000       0.000       0.000    
        0.000       0.000       0.000       0.000       0.000       0.000       0.000       0.000       0.000       0.000    
        0.000       0.000      3.1700E-09  3.1700E-09  3.1700E-09  3.1700E-09  3.1700E-09  3.1700E-09  3.1700E-09  3.1700E-09
       3.1700E-09  3.1700E-09  3.1700E-09  3.1700E-09  3.1700E-09  3.1700E-09  3.1700E-09  3.1700E-09  3.1700E-09   0.000    
        0.000       0.000       0.000       0.000       0.000       0.000       0.000       0.000       0.000       0.000    
        0.000       0.000    
  50    0.000       0.000       0.000       0.000       0.000       0.000       0.000       0.000       0.000       0.000    
        0.000       0.000       0.000       0.000       0.000       0.000       0.000       0.000       0.000       0.000    
        0.000       0.000       0.000      3.1700E-09  3.1700E-09  3.1700E-09  3.1700E-09  3.1700E-09  3.1700E-09  3.1700E-09
       3.1700E-09  3.1700E-09  3.1700E-09  3.1700E-09  3.1700E-09  3.1700E-09  3.1700E-09  3.1700E-09  3.1700E-09   0.000    
        0.000       0.000       0.000       0.000       0.000       0.000       0.000       0.000       0.000       0.000    
        0.000       0.000    
  51    0.000       0.000       0.000       0.000       0.000       0.000       0.000       0.000       0.000       0.000    
        0.000       0.000       0.000       0.000       0.000       0.000       0.000       0.000       0.000       0.000    
        0.000       0.000       0.000       0.000      3.1700E-09  3.1700E-09  3.1700E-09  3.1700E-09  3.1700E-09  3.1700E-09
       3.1700E-09  3.1700E-09  3.1700E-09  3.1700E-09  3.1700E-09  3.1700E-09  3.1700E-09  3.1700E-09  3.1700E-09   0.000    
        0.000       0.000       0.000       0.000       0.000       0.000       0.000       0.000       0.000       0.000    
        0.000       0.000    
  52    0.000       0.000       0.000       0.000       0.000       0.000       0.000       0.000       0.000       0.000    
        0.000       0.000       0.000       0.000       0.000       0.000       0.000       0.000       0.000       0.000    
        0.000       0.000       0.000       0.000       0.000      3.1700E-09  3.1700E-09   0.000      3.1700E-09  3.1700E-09
       3.1700E-09  3.1700E-09  3.1700E-09  3.1700E-09  3.1700E-09  3.1700E-09  3.1700E-09  3.1700E-09  3.1700E-09   0.000    
        0.000       0.000       0.000       0.000       0.000       0.000       0.000       0.000       0.000       0.000    
        0.000       0.000    
  53    0.000       0.000       0.000       0.000       0.000       0.000       0.000       0.000       0.000       0.000    
        0.000       0.000       0.000       0.000       0.000       0.000       0.000       0.000       0.000       0.000    
        0.000       0.000       0.000       0.000       0.000       0.000       0.000       0.000       0.000      3.1700E-09
       3.1700E-09  3.1700E-09  3.1700E-09  3.1700E-09  3.1700E-09  3.1700E-09  3.1700E-09  3.1700E-09  3.1700E-09  3.1700E-09
        0.000       0.000       0.000       0.000       0.000       0.000       0.000       0.000       0.000       0.000    
        0.000       0.000    
  54    0.000       0.000       0.000       0.000       0.000       0.000       0.000       0.000       0.000       0.000    
        0.000       0.000       0.000       0.000       0.000       0.000       0.000       0.000       0.000       0.000    
        0.000       0.000       0.000       0.000       0.000       0.000       0.000       0.000       0.000      3.1700E-09
       3.1700E-09  3.1700E-09  3.1700E-09  3.1700E-09  3.1700E-09  3.1700E-09  3.1700E-09  3.1700E-09  3.1700E-09  3.1700E-09
        0.000       0.000       0.000       0.000       0.000       0.000       0.000       0.000       0.000       0.000    
        0.000       0.000    
  55    0.000       0.000       0.000       0.000       0.000       0.000       0.000       0.000       0.000       0.000    
        0.000       0.000       0.000       0.000       0.000       0.000       0.000       0.000       0.000       0.000    
        0.000       0.000       0.000       0.000       0.000       0.000       0.000       0.000       0.000      3.1700E-09
       3.1700E-09  3.1700E-09  3.1700E-09  3.1700E-09  3.1700E-09  3.1700E-09  3.1700E-09  3.1700E-09  3.1700E-09  3.1700E-09
       3.1700E-09   0.000       0.000       0.000       0.000       0.000       0.000       0.000       0.000       0.000    
        0.000       0.000    
  56    0.000       0.000       0.000       0.000       0.000       0.000       0.000       0.000       0.000       0.000    
        0.000       0.000       0.000       0.000       0.000       0.000       0.000       0.000       0.000       0.000    
        0.000       0.000       0.000       0.000       0.000       0.000       0.000       0.000       0.000      3.1700E-09
       3.1700E-09  3.1700E-09  3.1700E-09  3.1700E-09  3.1700E-09  3.1700E-09  3.1700E-09  3.1700E-09  3.1700E-09  3.1700E-09
       3.1700E-09  3.1700E-09   0.000       0.000       0.000       0.000       0.000       0.000       0.000       0.000    
        0.000       0.000    
  57    0.000       0.000       0.000       0.000       0.000       0.000       0.000       0.000       0.000       0.000    
        0.000       0.000       0.000       0.000       0.000       0.000       0.000       0.000       0.000       0.000    
        0.000       0.000       0.000       0.000       0.000       0.000       0.000       0.000       0.000       0.000    
       3.1700E-09  3.1700E-09  3.1700E-09  3.1700E-09  3.1700E-09  3.1700E-09  3.1700E-09  3.1700E-09  3.1700E-09  3.1700E-09
       3.1700E-09  3.1700E-09  3.1700E-09   0.000       0.000       0.000       0.000       0.000       0.000       0.000    
        0.000       0.000    
  58    0.000       0.000       0.000       0.000       0.000       0.000       0.000       0.000       0.000       0.000    
        0.000       0.000       0.000       0.000       0.000       0.000       0.000       0.000       0.000       0.000    
        0.000       0.000       0.000       0.000       0.000       0.000       0.000       0.000       0.000       0.000    
       3.1700E-09  3.1700E-09  3.1700E-09  3.1700E-09  3.1700E-09  3.1700E-09  3.1700E-09  3.1700E-09  3.1700E-09  3.1700E-09
       3.1700E-09  3.1700E-09  3.1700E-09  3.1700E-09   0.000       0.000       0.000       0.000       0.000       0.000    
        0.000       0.000    
  59    0.000       0.000       0.000       0.000       0.000       0.000       0.000       0.000       0.000       0.000    
        0.000       0.000       0.000       0.000       0.000       0.000       0.000       0.000       0.000       0.000    
        0.000       0.000       0.000       0.000       0.000       0.000       0.000       0.000       0.000       0.000    
        0.000      3.1700E-09  3.1700E-09  3.1700E-09  3.1700E-09  3.1700E-09  3.1700E-09  3.1700E-09  3.1700E-09  3.1700E-09
       3.1700E-09  3.1700E-09  3.1700E-09  3.1700E-09  3.1700E-09   0.000       0.000       0.000       0.000       0.000    
        0.000       0.000    
  60    0.000       0.000       0.000       0.000       0.000       0.000       0.000       0.000       0.000       0.000    
        0.000       0.000       0.000       0.000       0.000       0.000       0.000       0.000       0.000       0.000    
        0.000       0.000       0.000       0.000       0.000       0.000       0.000       0.000       0.000       0.000    
        0.000      3.1700E-09  3.1700E-09  3.1700E-09  3.1700E-09  3.1700E-09  3.1700E-09  3.1700E-09  3.1700E-09  3.1700E-09
       3.1700E-09  3.1700E-09  3.1700E-09  3.1700E-09  3.1700E-09   0.000       0.000       0.000       0.000       0.000    
        0.000       0.000    
  61    0.000       0.000       0.000       0.000       0.000       0.000       0.000       0.000       0.000       0.000    
        0.000       0.000       0.000       0.000       0.000       0.000       0.000       0.000       0.000       0.000    
        0.000       0.000       0.000       0.000       0.000       0.000       0.000       0.000       0.000       0.000    
        0.000       0.000      3.1700E-09  3.1700E-09  3.1700E-09  3.1700E-09  3.1700E-09  3.1700E-09  3.1700E-09  3.1700E-09
       3.1700E-09  3.1700E-09  3.1700E-09  3.1700E-09  3.1700E-09  3.1700E-09   0.000       0.000       0.000       0.000    
        0.000       0.000    
  62    0.000       0.000       0.000       0.000       0.000       0.000       0.000       0.000       0.000       0.000    
        0.000       0.000       0.000       0.000       0.000       0.000       0.000       0.000       0.000       0.000    
        0.000       0.000       0.000       0.000       0.000       0.000       0.000       0.000       0.000       0.000    
        0.000       0.000      3.1700E-09  3.1700E-09  3.1700E-09  3.1700E-09  3.1700E-09  3.1700E-09  3.1700E-09  3.1700E-09
       3.1700E-09  3.1700E-09  3.1700E-09  3.1700E-09  3.1700E-09  3.1700E-09   0.000       0.000       0.000       0.000    
        0.000       0.000    
  63    0.000       0.000       0.000       0.000       0.000       0.000       0.000       0.000       0.000       0.000    
        0.000       0.000       0.000       0.000       0.000       0.000       0.000       0.000       0.000       0.000    
        0.000       0.000       0.000       0.000       0.000       0.000       0.000       0.000       0.000       0.000    
        0.000       0.000       0.000      3.1700E-09  3.1700E-09  3.1700E-09  3.1700E-09  3.1700E-09  3.1700E-09  3.1700E-09
       3.1700E-09  3.1700E-09  3.1700E-09  3.1700E-09  3.1700E-09  3.1700E-09   0.000       0.000       0.000       0.000    
        0.000       0.000    
  64    0.000       0.000       0.000       0.000       0.000       0.000       0.000       0.000       0.000       0.000    
        0.000       0.000       0.000       0.000       0.000       0.000       0.000       0.000       0.000       0.000    
        0.000       0.000       0.000       0.000       0.000       0.000       0.000       0.000       0.000       0.000    
        0.000       0.000       0.000       0.000      3.1700E-09  3.1700E-09  3.1700E-09  3.1700E-09  3.1700E-09  3.1700E-09
       3.1700E-09  3.1700E-09  3.1700E-09  3.1700E-09  3.1700E-09  3.1700E-09  3.1700E-09   0.000       0.000       0.000    
        0.000       0.000    
  65    0.000       0.000       0.000       0.000       0.000       0.000       0.000       0.000       0.000       0.000    
        0.000       0.000       0.000       0.000       0.000       0.000       0.000       0.000       0.000       0.000    
        0.000       0.000       0.000       0.000       0.000       0.000       0.000       0.000       0.000       0.000    
        0.000       0.000       0.000       0.000       0.000      3.1700E-09  3.1700E-09  3.1700E-09  3.1700E-09  3.1700E-09
       3.1700E-09  3.1700E-09  3.1700E-09  3.1700E-09  3.1700E-09  3.1700E-09   0.000       0.000       0.000       0.000    
        0.000       0.000    
  66    0.000       0.000       0.000       0.000       0.000       0.000       0.000       0.000       0.000       0.000    
        0.000       0.000       0.000       0.000       0.000       0.000       0.000       0.000       0.000       0.000    
        0.000       0.000       0.000       0.000       0.000       0.000       0.000       0.000       0.000       0.000    
        0.000       0.000       0.000       0.000       0.000       0.000       0.000      3.1700E-09  3.1700E-09  3.1700E-09
       3.1700E-09  3.1700E-09  3.1700E-09  3.1700E-09  3.1700E-09  3.1700E-09   0.000       0.000       0.000       0.000    
        0.000       0.000    
  67    0.000       0.000       0.000       0.000       0.000       0.000       0.000       0.000       0.000       0.000    
        0.000       0.000       0.000       0.000       0.000       0.000       0.000       0.000       0.000       0.000    
        0.000       0.000       0.000       0.000       0.000       0.000       0.000       0.000       0.000       0.000    
        0.000       0.000       0.000       0.000       0.000       0.000       0.000       0.000       0.000      3.1700E-09
       3.1700E-09  3.1700E-09  3.1700E-09  3.1700E-09  3.1700E-09   0.000       0.000       0.000       0.000       0.000    
        0.000       0.000    
  68    0.000       0.000       0.000       0.000       0.000       0.000       0.000       0.000       0.000       0.000    
        0.000       0.000       0.000       0.000       0.000       0.000       0.000       0.000       0.000       0.000    
        0.000       0.000       0.000       0.000       0.000       0.000       0.000       0.000       0.000       0.000    
        0.000       0.000       0.000       0.000       0.000       0.000       0.000       0.000       0.000       0.000    
        0.000      3.1700E-09  3.1700E-09   0.000       0.000       0.000       0.000       0.000       0.000       0.000    
        0.000       0.000    
 
 SOLVING FOR HEAD 

 CELL CONVERSIONS FOR ITER.=  2  LAYER=  1  STEP=  1  PERIOD=   1   (ROW,COL)
    DRY(  2, 30)   DRY(  2, 31)   DRY(  3, 30)   DRY(  3, 31)   DRY(  3, 32)   
    DRY(  3, 33)   DRY(  4, 30)   DRY(  4, 31)   DRY(  4, 32)   DRY(  4, 33)   
    DRY(  4, 34)   DRY(  4, 35)   DRY(  5, 29)   DRY(  5, 30)   DRY(  5, 31)   
    DRY(  5, 32)   DRY(  5, 33)   DRY(  5, 34)   DRY(  5, 35)   DRY(  5, 36)   
    DRY(  6, 30)   DRY(  6, 31)   DRY(  6, 32)   DRY(  6, 33)   DRY(  6, 34)   
    DRY(  6, 35)   DRY(  6, 36)   DRY(  7, 30)   DRY(  7, 31)   DRY(  7, 32)   
    DRY(  7, 33)   DRY(  7, 34)   DRY(  7, 35)   DRY(  7, 36)   DRY(  8, 30)   
    DRY(  8, 31)   DRY(  8, 32)   DRY(  8, 33)   DRY(  8, 34)   DRY(  8, 35)   
    DRY(  8, 36)   DRY(  9, 20)   DRY(  9, 32)   DRY(  9, 33)   DRY(  9, 34)   
    DRY(  9, 35)   DRY( 10, 20)   DRY( 10, 21)   DRY( 10, 33)   DRY( 10, 34)   
    DRY( 10, 35)   DRY( 11, 19)   DRY( 11, 20)   DRY( 11, 31)   DRY( 11, 32)   
    DRY( 11, 33)   DRY( 11, 34)   DRY( 11, 35)   DRY( 12, 19)   DRY( 12, 31)   
    DRY( 12, 32)   DRY( 12, 33)   DRY( 12, 34)   DRY( 12, 35)   DRY( 13, 32)   
    DRY( 13, 33)   DRY( 13, 34)   DRY( 13, 35)   DRY( 18, 44)   DRY( 19, 46)   
    DRY( 19, 47)   DRY( 19, 48)   DRY( 22, 38)   DRY( 23, 48)   DRY( 24, 47)   
    DRY( 49, 39)   DRY( 54, 35)   DRY( 55, 30)   DRY( 55, 35)   DRY( 55, 36)   
    DRY( 56, 30)   DRY( 56, 35)   DRY( 56, 36)   DRY( 56, 41)   DRY( 56, 42)   
    DRY( 57, 34)   DRY( 57, 35)   DRY( 57, 36)   DRY( 57, 41)   DRY( 57, 43)   
    DRY( 58, 33)   DRY( 58, 34)   DRY( 58, 35)   DRY( 58, 36)   DRY( 58, 41)   
    DRY( 58, 42)   DRY( 58, 43)   DRY( 58, 44)   DRY( 59, 32)   DRY( 59, 33)   
    DRY( 59, 36)   DRY( 59, 37)   DRY( 59, 38)   DRY( 59, 39)   DRY( 59, 41)   
    DRY( 59, 42)   DRY( 59, 43)   DRY( 59, 44)   DRY( 59, 45)   DRY( 60, 32)   
    DRY( 60, 34)   DRY( 60, 35)   DRY( 60, 36)   DRY( 60, 37)   DRY( 60, 38)   
    DRY( 60, 40)   DRY( 60, 41)   DRY( 60, 42)   DRY( 60, 43)   DRY( 60, 44)   
    DRY( 60, 45)   DRY( 61, 35)   DRY( 61, 36)   DRY( 61, 37)   DRY( 61, 38)   
    DRY( 61, 39)   DRY( 61, 40)   DRY( 61, 41)   DRY( 61, 42)   DRY( 61, 43)   
    DRY( 61, 44)   DRY( 61, 45)   DRY( 61, 46)   DRY( 62, 33)   DRY( 62, 34)   
    DRY( 62, 35)   DRY( 62, 36)   DRY( 62, 37)   DRY( 62, 38)   DRY( 62, 39)   
    DRY( 62, 40)   DRY( 62, 41)   DRY( 62, 42)   DRY( 62, 43)   DRY( 62, 44)   
    DRY( 62, 45)   DRY( 62, 46)   DRY( 63, 34)   DRY( 63, 35)   DRY( 63, 36)   
    DRY( 63, 37)   DRY( 63, 38)   DRY( 63, 39)   DRY( 63, 40)   DRY( 63, 41)   
    DRY( 63, 42)   DRY( 63, 43)   DRY( 63, 44)   DRY( 63, 45)   DRY( 63, 46)   
    DRY( 64, 35)   DRY( 64, 36)   DRY( 64, 37)   DRY( 64, 38)   DRY( 64, 39)   
    DRY( 64, 40)   DRY( 64, 41)   DRY( 64, 42)   DRY( 64, 43)   DRY( 64, 44)   
    DRY( 64, 45)   DRY( 64, 46)   DRY( 64, 47)   DRY( 65, 36)   DRY( 65, 37)   
    DRY( 65, 38)   DRY( 65, 39)   DRY( 65, 40)   DRY( 65, 41)   DRY( 65, 42)   
    DRY( 65, 43)   DRY( 65, 44)   DRY( 65, 45)   DRY( 65, 46)   DRY( 66, 38)   
    DRY( 66, 39)   DRY( 66, 40)   DRY( 66, 41)   DRY( 66, 42)   DRY( 66, 43)   
    DRY( 66, 44)   DRY( 66, 45)   DRY( 66, 46)   DRY( 67, 40)   DRY( 67, 41)   
    DRY( 67, 42)   DRY( 67, 43)   DRY( 67, 44)   DRY( 67, 45)   DRY( 68, 42)   
    DRY( 68, 43)   

 CELL CONVERSIONS FOR ITER.=  2  LAYER=  2  STEP=  1  PERIOD=   1   (ROW,COL)
    DRY(  4, 35)   DRY(  5, 35)   DRY(  5, 36)   DRY(  6, 33)   DRY(  6, 34)   
    DRY(  6, 35)   DRY(  6, 36)   DRY(  7, 33)   DRY(  7, 34)   DRY(  7, 35)   
    DRY(  7, 36)   DRY(  8, 33)   DRY(  8, 34)   DRY(  8, 35)   DRY(  8, 36)   
    DRY( 12, 33)   

 CELL CONVERSIONS FOR ITER.=  3  LAYER=  1  STEP=  1  PERIOD=   1   (ROW,COL)
    DRY(  1, 26)   DRY(  1, 27)   DRY(  1, 28)   DRY(  1, 29)   DRY(  2, 27)   
    DRY(  2, 28)   DRY(  2, 29)   DRY(  3, 27)   DRY(  3, 28)   DRY(  3, 29)   
    DRY(  4, 26)   DRY(  4, 27)   DRY(  4, 28)   DRY(  4, 29)   DRY(  5, 26)   
    DRY(  5, 27)   DRY(  5, 28)   DRY(  6, 26)   DRY(  6, 27)   DRY(  6, 28)   
    DRY(  6, 29)   DRY(  7, 19)   DRY(  7, 24)   DRY(  7, 27)   DRY(  7, 28)   
    DRY(  7, 29)   DRY(  8, 19)   DRY(  8, 20)   DRY(  8, 29)   DRY(  9, 19)   
    DRY(  9, 21)   DRY(  9, 30)   DRY(  9, 31)   DRY( 10, 19)   DRY( 10, 30)   
    DRY( 10, 31)   DRY( 10, 32)   DRY( 11, 18)   DRY( 11, 21)   DRY( 11, 30)   
    DRY( 12, 18)   DRY( 12, 20)   DRY( 12, 30)   DRY( 13, 19)   DRY( 13, 20)   
    DRY( 13, 31)   DRY( 14, 35)   DRY( 18, 43)   DRY( 19, 45)   DRY( 19, 49)   
    DRY( 19, 50)   DRY( 19, 51)   DRY( 19, 52)   DRY( 20, 46)   DRY( 20, 47)   
    DRY( 20, 50)   DRY( 20, 51)   DRY( 20, 52)   DRY( 21, 45)   DRY( 21, 46)   
    DRY( 21, 47)   DRY( 21, 50)   DRY( 21, 51)   DRY( 22, 46)   DRY( 22, 47)   
    DRY( 22, 48)   DRY( 22, 49)   DRY( 23, 45)   DRY( 23, 47)   DRY( 28, 37)   
    DRY( 43, 38)   DRY( 44, 38)   DRY( 45, 38)   DRY( 48, 37)   DRY( 50, 33)   
    DRY( 50, 38)   DRY( 50, 39)   DRY( 51, 33)   DRY( 51, 34)   DRY( 51, 37)   
    DRY( 51, 38)   DRY( 51, 39)   DRY( 52, 37)   DRY( 52, 38)   DRY( 52, 39)   
    DRY( 53, 33)   DRY( 53, 34)   DRY( 53, 35)   DRY( 53, 37)   DRY( 53, 38)   
    DRY( 53, 39)   DRY( 53, 40)   DRY( 54, 32)   DRY( 54, 33)   DRY( 54, 34)   
    DRY( 54, 36)   DRY( 54, 37)   DRY( 54, 38)   DRY( 54, 39)   DRY( 54, 40)   
    DRY( 55, 31)   DRY( 55, 32)   DRY( 55, 33)   DRY( 55, 34)   DRY( 55, 37)   
    DRY( 55, 38)   DRY( 55, 39)   DRY( 55, 40)   DRY( 55, 41)   DRY( 56, 31)   
    DRY( 56, 32)   DRY( 56, 33)   DRY( 56, 34)   DRY( 56, 37)   DRY( 56, 38)   
    DRY( 56, 39)   DRY( 56, 40)   DRY( 57, 31)   DRY( 57, 32)   DRY( 57, 33)   
    DRY( 57, 37)   DRY( 57, 38)   DRY( 57, 39)   DRY( 57, 40)   DRY( 57, 42)   
    DRY( 58, 31)   DRY( 58, 32)   DRY( 58, 37)   DRY( 58, 38)   DRY( 58, 39)   
    DRY( 58, 40)   DRY( 59, 34)   DRY( 59, 35)   DRY( 59, 40)   DRY( 60, 33)   
    DRY( 60, 39)   DRY( 61, 33)   DRY( 61, 34)   

 CELL CONVERSIONS FOR ITER.=  3  LAYER=  2  STEP=  1  PERIOD=   1   (ROW,COL)
    DRY(  2, 31)   DRY(  4, 34)   DRY(  5, 32)   DRY(  5, 33)   DRY(  5, 34)   
    DRY(  6, 32)   DRY(  7, 31)   DRY(  7, 32)   DRY(  8, 32)   DRY(  9, 34)   
    DRY(  9, 35)   DRY( 10, 20)   DRY( 11, 35)   DRY( 12, 31)   DRY( 12, 32)   
    DRY( 12, 34)   DRY( 12, 35)   DRY( 64, 45)   DRY( 64, 46)   DRY( 64, 47)   
    DRY( 65, 46)   DRY( 66, 42)   DRY( 66, 43)   DRY( 66, 44)   DRY( 66, 45)   
    DRY( 66, 46)   DRY( 67, 41)   DRY( 67, 42)   DRY( 67, 43)   DRY( 67, 44)   
    DRY( 67, 45)   DRY( 68, 42)   DRY( 68, 43)   

 CELL CONVERSIONS FOR ITER.=  4  LAYER=  1  STEP=  1  PERIOD=   1   (ROW,COL)
    DRY( 40, 37)   DRY( 46, 38)   DRY( 47, 36)   DRY( 48, 36)   DRY( 49, 37)   
    DRY( 49, 38)   DRY( 50, 32)   DRY( 50, 34)   DRY( 50, 37)   DRY( 51, 32)   
    DRY( 51, 36)   DRY( 52, 31)   DRY( 52, 33)   DRY( 52, 35)   DRY( 52, 36)   
    DRY( 53, 32)   DRY( 53, 36)   DRY( 54, 31)   

 CELL CONVERSIONS FOR ITER.=  4  LAYER=  2  STEP=  1  PERIOD=   1   (ROW,COL)
    DRY( 58, 44)   DRY( 59, 45)   DRY( 60, 44)   DRY( 60, 45)   DRY( 61, 44)   
    DRY( 61, 45)   DRY( 61, 46)   DRY( 62, 40)   DRY( 62, 45)   DRY( 62, 46)   
    DRY( 63, 40)   DRY( 63, 41)   DRY( 63, 42)   DRY( 63, 44)   DRY( 63, 45)   
    DRY( 63, 46)   DRY( 64, 40)   DRY( 64, 42)   DRY( 64, 43)   DRY( 64, 44)   
    DRY( 65, 37)   DRY( 65, 38)   DRY( 65, 39)   DRY( 65, 40)   DRY( 65, 41)   
    DRY( 65, 42)   DRY( 65, 43)   DRY( 65, 44)   DRY( 65, 45)   DRY( 66, 38)   
    DRY( 66, 39)   DRY( 66, 40)   DRY( 66, 41)   DRY( 67, 40)   

 ISOLATED CELL IS BEING ELIMINATED (LAYER,ROW,COL):     2    64    41
 (PCG7AP)

 CELL CONVERSIONS FOR ITER.=  5  LAYER=  1  STEP=  1  PERIOD=   1   (ROW,COL)
    DRY(  3, 25)   DRY(  4, 25)   DRY( 17, 39)   DRY( 17, 40)   DRY( 18, 39)   
    DRY( 18, 41)   DRY( 18, 42)   DRY( 19, 41)   DRY( 19, 42)   DRY( 19, 43)   
    DRY( 19, 44)   DRY( 20, 40)   DRY( 20, 41)   DRY( 20, 42)   DRY( 20, 43)   
    DRY( 20, 44)   DRY( 20, 45)   DRY( 20, 48)   DRY( 20, 49)   DRY( 21, 37)   
    DRY( 21, 43)   DRY( 21, 44)   DRY( 21, 48)   DRY( 21, 49)   DRY( 22, 37)   
    DRY( 22, 42)   DRY( 22, 43)   DRY( 22, 44)   DRY( 22, 45)   DRY( 23, 37)   
    DRY( 23, 41)   DRY( 23, 44)   DRY( 23, 46)   DRY( 27, 37)   DRY( 38, 36)   
    DRY( 38, 37)   DRY( 39, 33)   DRY( 39, 37)   DRY( 40, 35)   DRY( 40, 36)   
    DRY( 41, 35)   DRY( 41, 37)   DRY( 42, 35)   DRY( 42, 37)   DRY( 43, 34)   
    DRY( 43, 35)   DRY( 43, 36)   DRY( 43, 37)   DRY( 44, 34)   DRY( 44, 35)   
    DRY( 44, 36)   DRY( 44, 37)   DRY( 45, 35)   DRY( 45, 36)   DRY( 45, 37)   
    DRY( 46, 32)   DRY( 46, 33)   DRY( 46, 34)   DRY( 46, 35)   DRY( 46, 36)   
    DRY( 46, 37)   DRY( 47, 30)   DRY( 47, 31)   DRY( 47, 32)   DRY( 47, 34)   
    DRY( 47, 35)   DRY( 47, 37)   DRY( 47, 38)   DRY( 48, 28)   DRY( 48, 31)   
    DRY( 48, 32)   DRY( 48, 33)   DRY( 48, 34)   DRY( 48, 35)   DRY( 48, 38)   
    DRY( 49, 28)   DRY( 49, 29)   DRY( 49, 30)   DRY( 49, 31)   DRY( 49, 32)   
    DRY( 49, 33)   DRY( 49, 34)   DRY( 49, 35)   DRY( 50, 27)   DRY( 50, 28)   
    DRY( 50, 29)   DRY( 50, 30)   DRY( 50, 31)   DRY( 50, 35)   DRY( 50, 36)   
    DRY( 51, 27)   DRY( 51, 28)   DRY( 51, 29)   DRY( 51, 30)   DRY( 51, 31)   
    DRY( 51, 35)   DRY( 52, 27)   DRY( 52, 29)   DRY( 52, 30)   DRY( 52, 32)   
    DRY( 52, 34)   DRY( 53, 30)   DRY( 53, 31)   DRY( 54, 30)   

 CELL CONVERSIONS FOR ITER.=  5  LAYER=  2  STEP=  1  PERIOD=   1   (ROW,COL)
    DRY(  3, 33)   DRY(  9, 33)   DRY( 10, 35)   DRY( 11, 31)   DRY( 11, 34)   
    DRY( 13, 34)   DRY( 19, 46)   DRY( 56, 30)   DRY( 56, 42)   DRY( 57, 35)   
    DRY( 57, 36)   DRY( 57, 41)   DRY( 57, 43)   DRY( 58, 34)   DRY( 58, 35)   
    DRY( 58, 41)   DRY( 58, 43)   DRY( 59, 36)   DRY( 59, 41)   DRY( 59, 42)   
    DRY( 59, 43)   DRY( 59, 44)   DRY( 60, 36)   DRY( 60, 37)   DRY( 60, 38)   
    DRY( 60, 41)   DRY( 60, 42)   DRY( 60, 43)   DRY( 61, 36)   DRY( 61, 39)   
    DRY( 61, 41)   DRY( 61, 42)   DRY( 61, 43)   DRY( 62, 36)   DRY( 62, 37)   
    DRY( 62, 38)   DRY( 62, 39)   DRY( 62, 41)   DRY( 62, 42)   DRY( 62, 43)   
    DRY( 62, 44)   DRY( 63, 34)   DRY( 63, 35)   DRY( 63, 36)   DRY( 63, 37)   
    DRY( 63, 38)   DRY( 63, 39)   DRY( 63, 43)   DRY( 64, 35)   DRY( 64, 36)   
    DRY( 64, 37)   DRY( 64, 38)   DRY( 64, 39)   DRY( 65, 36)   

 CELL CONVERSIONS FOR ITER.=  7  LAYER=  1  STEP=  1  PERIOD=   1   (ROW,COL)
    DRY( 38, 33)   DRY( 39, 35)   DRY( 42, 33)   DRY( 42, 36)   DRY( 43, 33)   
    DRY( 45, 31)   DRY( 45, 34)   DRY( 46, 28)   DRY( 46, 29)   DRY( 46, 30)   
    DRY( 47, 28)   DRY( 47, 29)   DRY( 47, 33)   DRY( 48, 29)   DRY( 49, 26)   
    DRY( 49, 27)   DRY( 49, 36)   DRY( 50, 26)   DRY( 51, 25)   DRY( 51, 26)   
    DRY( 52, 26)   

 CELL CONVERSIONS FOR ITER.=  7  LAYER=  2  STEP=  1  PERIOD=   1   (ROW,COL)
    DRY( 49, 39)   DRY( 54, 35)   DRY( 55, 35)   DRY( 55, 41)   DRY( 56, 35)   
    DRY( 56, 36)   DRY( 56, 41)   DRY( 57, 34)   DRY( 57, 40)   DRY( 58, 33)   
    DRY( 58, 36)   DRY( 58, 39)   DRY( 59, 32)   DRY( 59, 37)   DRY( 59, 38)   
    DRY( 59, 39)   DRY( 60, 34)   DRY( 60, 35)   DRY( 60, 39)   DRY( 60, 40)   
    DRY( 61, 35)   DRY( 61, 40)   DRY( 62, 33)   DRY( 62, 34)   DRY( 62, 35)   

 CELL CONVERSIONS FOR ITER.=  9  LAYER=  1  STEP=  1  PERIOD=   1   (ROW,COL)
    DRY( 39, 32)   DRY( 45, 33)   DRY( 46, 31)   DRY( 48, 27)   DRY( 48, 30)   
    DRY( 49, 25)   DRY( 50, 25)   

 CELL CONVERSIONS FOR ITER.=  9  LAYER=  2  STEP=  1  PERIOD=   1   (ROW,COL)
    DRY( 54, 40)   DRY( 55, 36)   DRY( 56, 40)   DRY( 57, 38)   DRY( 57, 39)   


    17 CALLS TO PCG ROUTINE FOR TIME STEP   1 IN STRESS PERIOD    1
   445 TOTAL ITERATIONS

 MAXIMUM HEAD CHANGE FOR EACH ITERATION (1 INDICATES THE FIRST INNER ITERATION):

    HEAD CHANGE    HEAD CHANGE    HEAD CHANGE    HEAD CHANGE    HEAD CHANGE 
   LAYER,ROW,COL  LAYER,ROW,COL  LAYER,ROW,COL  LAYER,ROW,COL  LAYER,ROW,COL
 ---------------------------------------------------------------------------
  1  -114.2      0   74.12      0  -60.54      0   37.34      0  -32.88    
   (  1,  7, 36)  (  1, 20, 52)  (  1, 19, 52)  (  1, 22, 49)  (  1, 22, 49)
  0   17.78      0  -11.61      0  -12.05      0  -5.584      0   3.776    
   (  1,  8, 36)  (  1, 66, 46)  (  1, 64, 47)  (  1, 66, 46)  (  1, 52, 27)
  0  -4.467      0  -3.777      0  -2.123      0  -3.133      0  -3.674    
   (  2, 52, 27)  (  1, 66, 46)  (  2, 19, 52)  (  1, 64, 47)  (  2, 68, 43)
  0  -3.392      0  -3.125      0  -2.020      0  -3.994      0  -2.445    
   (  1, 65, 46)  (  1, 64, 47)  (  1, 64, 47)  (  1, 68, 43)  (  1, 64, 47)
  0  -1.411      0 -0.9455      0 -0.8892      0  -1.023      0  -1.146    
   (  1, 59, 45)  (  1, 21, 50)  (  1, 19, 52)  (  2, 41, 33)  (  1, 67, 44)
  0 -0.7859      0  -1.036      0 -0.7354      0 -0.5932      0 -0.4736    
   (  2, 35, 35)  (  1, 23, 37)  (  2, 20, 52)  (  2, 22, 49)  (  2, 19, 52)
  1  -20.39      0  -10.27      0  -22.99      0  -6.118      0  -6.002    
   (  1,  7, 13)  (  2,  4, 17)  (  2,  3, 33)  (  2,  6, 32)  (  2, 22, 49)
  0  -3.820      0  -4.164      0  -2.799      0  -1.893      0  -1.359    
   (  2, 21, 51)  (  2, 19, 52)  (  1, 22, 49)  (  1, 52, 27)  (  2, 67, 45)
  0  -1.586      0  -1.450      0  -1.228      0 -0.9210      0 -0.6663    
   (  1, 52, 27)  (  2, 68, 43)  (  2, 67, 45)  (  2, 68, 43)  (  2, 67, 45)
  0 -0.3156      0  0.1974      0  0.2033      0  0.1245      0  0.7828E-01
   (  2, 68, 43)  (  1, 21, 51)  (  2, 19, 52)  (  2, 23, 48)  (  1, 20, 52)
  0  0.9109E-01  0  0.5255E-01  0  0.3894E-01  0 -0.1929E-01  0  0.1360E-01
   (  1, 22, 49)  (  2, 23, 48)  (  1, 20, 52)  (  2,  4, 34)  (  2,  5, 33)
  0  0.1128E-01  0  0.5388E-02  0  0.2353E-02  0  0.2929E-02  0  0.9373E-03
   (  2, 20, 52)  (  2, 23, 48)  (  2, 21, 51)  (  2, 19, 52)  (  2, 23, 48)
  1   8.684      0   12.45      0   9.226      0  -11.44      0  -7.296    
   (  1, 18, 16)  (  2, 19, 52)  (  2,  3, 32)  (  2,  3, 32)  (  2, 22, 49)
  0   15.95      0  -8.238      0   6.187      0   2.145      0   2.054    
   (  2,  3, 32)  (  2,  3, 32)  (  2,  3, 32)  (  2,  5, 31)  (  2, 19, 52)
  0  -1.332      0  0.9387      0   1.279      0  0.5546      0  0.5802    
   (  2, 19, 52)  (  2, 19, 52)  (  2, 21, 50)  (  2, 23, 48)  (  2, 20, 52)
  0  0.4860      0  0.4677      0  0.3139      0  0.2729      0 -0.1761    
   (  2, 23, 48)  (  2, 10, 35)  (  2, 64, 42)  (  2, 19, 52)  (  2, 19, 52)
  0  0.1983      0  0.2463      0  0.2471      0  0.3003      0 -0.1910    
   (  2, 19, 52)  (  2, 65, 41)  (  2, 67, 40)  (  2,  3, 32)  (  2,  3, 33)
  0  0.8385E-01  0 -0.4923E-01  0  0.2226E-01  0  0.3437E-01  0  0.1276E-01
   (  2, 66, 41)  (  2, 19, 52)  (  2, 19, 52)  (  2, 65, 36)  (  2, 64, 42)
  1  -14.18      0  -16.48      0   8.541      0  -7.246      0  -10.58    
   (  1,  5, 12)  (  2,  4, 32)  (  2,  3, 32)  (  2, 19, 52)  (  2,  3, 32)
  0  -5.138      0  -2.087      0  -2.207      0  -5.306      0   2.981    
   (  2,  5, 31)  (  2, 10, 35)  (  2, 23, 48)  (  2, 10, 35)  (  2, 10, 35)
  0   1.300      0  -2.749      0  -1.794      0 -0.9165      0 -0.8027    
   (  2, 10, 35)  (  2, 10, 35)  (  2, 21, 50)  (  2, 19, 52)  (  2, 23, 48)
  0 -0.9662      0 -0.4815      0  -1.052      0  0.3904      0 -0.1997    
   (  2, 65, 36)  (  2, 64, 37)  (  2, 65, 36)  (  2, 65, 36)  (  2, 65, 36)
  0  0.7230E-01  0  0.5005E-01  0  0.6181E-01  0 -0.4905E-01  0  0.3961E-01
   (  2, 19, 52)  (  2,  3, 33)  (  2,  3, 33)  (  1, 52, 27)  (  2, 23, 48)
  0  0.2633E-01  0 -0.1306E-01  0  0.1314E-01  0  0.9660E-02  0  0.4836E-02
   (  2, 24, 47)  (  2,  4, 32)  (  2, 20, 52)  (  2, 22, 49)  (  2, 21, 51)
  1   6.571      0  -9.475      0   7.906      0  -5.011      0  -5.308    
   (  1,  5, 11)  (  2, 19, 52)  (  2, 19, 52)  (  2, 22, 49)  (  2,  3, 32)
  0   15.74      0  -6.876      0   5.744      0   1.686      0   1.128    
   (  2,  3, 32)  (  2,  3, 32)  (  2,  3, 32)  (  2,  5, 31)  (  1, 17, 27)
  0 -0.9067      0   2.974      0   1.635      0   1.445      0  0.8297    
   (  2, 19, 52)  (  2, 19, 52)  (  2,  6, 31)  (  2, 22, 49)  (  2, 19, 52)
  0   1.150      0  0.8636      0  0.7948      0  0.3070      0  0.4588    
   (  2, 52, 27)  (  2, 59, 37)  (  2, 52, 27)  (  2, 19, 52)  (  2, 57, 34)
  0  0.2566      0  0.1689      0  0.1106      0 -0.7044E-01  0 -0.5649E-01
   (  2, 58, 38)  (  2, 59, 37)  (  2, 57, 34)  (  2, 22, 49)  (  2, 20, 52)
  0  0.1294      0 -0.5901E-01  0 -0.4297E-01  0  0.2279E-01  0  0.1184E-01
   (  2,  3, 32)  (  2,  3, 32)  (  2,  3, 32)  (  2,  4, 32)  (  2, 62, 33)
  1  -7.800      0  -7.009      0   5.771      0   3.057      0  -3.902    
   (  2,  5, 13)  (  2,  3, 32)  (  2,  3, 32)  (  2, 19, 52)  (  2,  3, 32)
  0  -3.098      0  -1.727      0   1.043      0  -1.095      0  -2.079    
   (  2,  5, 31)  (  2, 22, 49)  (  2, 22, 49)  (  2, 23, 48)  (  2, 19, 52)
  0 -0.6459      0 -0.6179      0 -0.3978      0 -0.4976      0 -0.3191    
   (  2, 24, 47)  (  2, 21, 51)  (  2, 19, 52)  (  2, 57, 34)  (  2, 52, 27)
  0 -0.1839      0 -0.1167      0 -0.7980E-01  0  0.8117E-01  0  0.7169E-01
   (  2, 58, 40)  (  2, 55, 41)  (  2, 22, 49)  (  2, 22, 49)  (  2,  3, 32)
  0 -0.3303E-01  0 -0.3912E-01  0 -0.2458E-01  0  0.3252E-01  0 -0.1740E-01
   (  2, 19, 52)  (  2,  3, 32)  (  2, 10, 34)  (  2, 10, 34)  (  2, 10, 34)
  0  0.6308E-02  0 -0.3587E-02  0  0.3207E-02  0  0.2451E-02  0  0.1860E-02
   (  2, 24, 47)  (  2,  6, 31)  (  2, 19, 52)  (  2, 21, 51)  (  2, 22, 49)
  1   3.568      0   2.197      0   2.621      0  -2.098      0   1.249    
   (  2,  5, 13)  (  2, 11, 13)  (  2,  6, 31)  (  2, 19, 52)  (  2, 59, 34)
  0  -2.791      0   11.01      0  -10.55      0   2.085      0  0.6274    
   (  2, 59, 34)  (  2, 59, 34)  (  2, 59, 34)  (  2,  3, 32)  (  2, 10, 31)
  0  0.3742      0  0.4929      0  0.2951      0   1.040      0  -2.105    
   (  1, 11, 29)  (  2, 11, 33)  (  1, 29, 37)  (  2, 59, 34)  (  2, 59, 34)
  0   1.903      0 -0.7410      0  0.9077      0  0.1710      0  0.2382    
   (  2, 59, 34)  (  2, 58, 31)  (  2, 58, 31)  (  2, 19, 52)  (  2, 22, 49)
  0  0.1241      0  0.1748      0  0.7122      0 -0.6913      0  0.1560    
   (  2, 23, 48)  (  2, 20, 52)  (  2, 59, 34)  (  2, 59, 34)  (  2, 59, 34)
  0 -0.8943E-01  0 -0.6843E-01  0  0.2259E-01  0  0.1391E-01  0  0.2573E-01
   (  2, 59, 34)  (  2,  3, 32)  (  2, 56, 34)  (  2, 57, 39)  (  2, 59, 34)
  1  -4.877      0   31.92      0  -34.50      0   5.216      0  -1.396    
   (  2,  4, 15)  (  2, 59, 34)  (  2, 59, 34)  (  2, 59, 34)  (  2, 19, 52)
  0  -1.078      0  -1.894      0  -1.344      0   1.410      0  -1.000    
   (  2, 21, 50)  (  2, 19, 52)  (  2,  3, 32)  (  2,  3, 32)  (  2, 19, 52)
  0  0.8464      0  -4.448      0   3.958      0 -0.6029      0 -0.2537    
   (  2, 59, 34)  (  2, 59, 34)  (  2, 59, 34)  (  2, 19, 52)  (  2, 23, 37)
  0 -0.2127      0 -0.2013      0 -0.2311      0 -0.1048      0  0.5344    
   (  2, 19, 52)  (  2, 30, 36)  (  2, 58, 31)  (  2, 22, 49)  (  2, 59, 34)
  0 -0.6463      0 -0.2660      0  0.9561E-01  0 -0.3268E-01  0 -0.1230E-01
   (  2, 59, 34)  (  2, 58, 31)  (  2, 58, 31)  (  2, 58, 31)  (  2, 19, 52)
  0  0.2375E-01  0 -0.1909E-01  0 -0.3818E-01  0  0.4944E-01  0 -0.1294E-01
   (  2,  4, 33)  (  2,  3, 32)  (  2, 59, 34)  (  2, 59, 34)  (  2, 59, 34)
  1   3.028      0   2.831      0   8.147      0  -12.84      0   6.297    
   (  2,  5, 16)  (  2,  3, 32)  (  2, 59, 34)  (  2, 59, 34)  (  2, 59, 34)
  0  -1.972      0   1.034      0  -1.185      0  0.8090      0  0.6362    
   (  2, 59, 34)  (  2, 59, 34)  (  2,  3, 32)  (  2,  3, 32)  (  2,  5, 31)
  0  0.4995      0  0.4434      0   2.588      0  -2.879      0  0.4963    
   (  2, 11, 33)  (  2, 23, 48)  (  2, 59, 34)  (  2, 59, 34)  (  2, 59, 34)
  0  0.1907      0  0.3900      0 -0.2428      0  0.6097      0  0.2067    
   (  2, 21, 51)  (  2, 19, 52)  (  2, 58, 31)  (  2, 58, 31)  (  2, 58, 31)
  0 -0.4656      0 -0.3092      0  0.3976      0 -0.1016      0  0.3655E-01
   (  2, 58, 31)  (  2, 59, 34)  (  2, 59, 34)  (  2, 59, 34)  (  2, 52, 27)
  0  0.1428E-01  0  0.1530E-01  0  0.1033E-01  0  0.1401E-01  0 -0.1041E-01
   (  2, 19, 52)  (  2, 56, 38)  (  2, 52, 27)  (  2,  3, 32)  (  2,  3, 32)
  1  -2.937      0   9.218      0  -11.73      0   3.131      0 -0.7299    
   (  2,  4, 13)  (  2, 59, 34)  (  2, 59, 34)  (  2, 59, 34)  (  2, 22, 49)
  0 -0.9761      0 -0.4063      0 -0.4307      0 -0.4029      0 -0.2244    
   (  2,  3, 32)  (  2,  5, 31)  (  2, 19, 52)  (  2,  3, 32)  (  2, 23, 48)
  0 -0.5326      0  -2.048      0   2.216      0 -0.3098      0 -0.1567    
   (  2, 19, 52)  (  2, 59, 34)  (  2, 59, 34)  (  2, 59, 34)  (  2, 57, 37)
  0 -0.1270      0 -0.7392E-01  0 -0.2109      0 -0.5151E-01  0  0.1148    
   (  2, 52, 26)  (  2, 19, 52)  (  2, 58, 31)  (  2, 22, 49)  (  2, 58, 31)
  0 -0.2090      0  0.2459      0  0.5453E-01  0 -0.2579E-01  0  0.1950E-01
   (  2, 59, 34)  (  2, 59, 34)  (  2, 58, 31)  (  2, 58, 31)  (  2,  4, 32)
  0 -0.9804E-02  0  0.6936E-02  0  0.4133E-02  0  0.5504E-02  0  0.1286E-01
   (  2, 57, 33)  (  2, 19, 52)  (  2, 21, 51)  (  2, 57, 37)  (  2, 59, 34)
  1  0.9455      0   8.005      0  -7.622      0  0.4752      0 -0.3118    
   (  1,  4, 13)  (  2, 59, 34)  (  2, 59, 34)  (  2,  6, 31)  (  2, 22, 49)
  0 -0.3192      0 -0.2106      0 -0.1166      0  0.2738      0  0.1444    
   (  2,  5, 31)  (  2,  3, 32)  (  2, 19, 52)  (  2,  3, 32)  (  2, 10, 31)
  0   1.021      0  -1.112      0  0.1422      0  0.1281      0  0.6841E-01
   (  2, 59, 34)  (  2, 59, 34)  (  2, 59, 34)  (  2, 19, 52)  (  2, 54, 36)
  0  0.5051E-01  0  0.3315E-01  0  0.5336E-01  0 -0.1696      0  0.1487    
   (  2, 52, 27)  (  2, 19, 52)  (  2, 59, 34)  (  2, 59, 34)  (  2, 59, 34)
  0 -0.2691E-01  0  0.9451E-02  0  0.2088E-01  0 -0.2336E-01  0  0.8313E-02
   (  2, 59, 34)  (  2, 57, 33)  (  2, 58, 31)  (  2, 58, 31)  (  2, 58, 31)
  0 -0.1590E-01  0  0.1878E-01  0 -0.1223E-01  0  0.7196E-02  0 -0.1028E-02
   (  2, 59, 34)  (  2, 59, 34)  (  2, 59, 34)  (  2, 59, 34)  (  2, 24, 47)
  1 -0.5968      0 -0.3570      0 -0.2546      0 -0.3103      0  0.4625    
   (  1,  6, 16)  (  2,  6, 31)  (  2,  3, 32)  (  2, 59, 34)  (  2, 59, 34)
  0  -1.078      0   1.054      0 -0.2569      0  0.8499E-01  0  0.7601E-01
   (  2, 59, 34)  (  2, 59, 34)  (  2, 59, 34)  (  2,  3, 32)  (  2,  6, 31)
  0 -0.8400E-01  0  0.5259E-01  0 -0.7283E-01  0  0.3313      0 -0.3445    
   (  2, 19, 52)  (  2, 20, 52)  (  2, 19, 52)  (  2, 59, 34)  (  2, 59, 34)
  0  0.1058      0 -0.6569E-01  0 -0.4006E-01  0  0.2824E-01  0 -0.8798E-02
   (  2, 59, 34)  (  2, 59, 34)  (  2, 58, 31)  (  2, 58, 31)  (  2, 20, 52)
  0 -0.3807E-01  0 -0.3136E-01  0  0.3718E-01  0 -0.7552E-02  0  0.1913E-02
   (  2, 58, 31)  (  2, 59, 34)  (  2, 59, 34)  (  2, 59, 34)  (  2, 19, 52)
  0  0.2864E-02  0 -0.2706E-02  0 -0.1395E-02  0 -0.9688E-03  1  0.5212    
   (  2,  4, 32)  (  2,  3, 32)  (  2, 58, 31)  (  2, 58, 38)  (  1,  6, 17)
  0  0.3153      0   1.729      0  -1.587      0  0.1192      0  0.9861E-01
   (  2,  3, 31)  (  2, 59, 34)  (  2, 59, 34)  (  2, 21, 50)  (  2, 19, 52)
  0 -0.7868E-01  0 -0.9030E-01  0  0.7165E-01  0  0.6330E-01  0  0.3161E-01
   (  2, 19, 52)  (  2,  3, 32)  (  2,  3, 32)  (  2, 19, 52)  (  2, 10, 31)
  0  0.2416      0 -0.2623      0  0.3392E-01  0  0.2946E-01  0 -0.1074E-01
   (  2, 59, 34)  (  2, 59, 34)  (  2, 59, 34)  (  2,  6, 31)  (  2, 19, 52)
  0  0.2305E-01  0  0.2441E-01  0 -0.2183E-01  0 -0.1022E-01  0  0.4369E-01
   (  2, 19, 52)  (  2, 58, 31)  (  2, 58, 31)  (  2, 59, 34)  (  2, 59, 34)
  0 -0.4016E-01  0 -0.1102E-01  0  0.4575E-02  0  0.1394E-02  0 -0.9519E-03
   (  2, 59, 34)  (  2, 58, 31)  (  2, 58, 31)  (  2, 57, 33)  (  2, 19, 52)
  1 -0.3285      0 -0.1682      0 -0.1229      0  0.1149      0 -0.1044    
   (  1,  5, 16)  (  2, 19, 52)  (  2,  3, 32)  (  2,  3, 32)  (  2,  3, 32)
  0  0.3889      0 -0.4234      0  0.1368      0 -0.3300E-01  0  0.1425E-01
   (  2, 59, 34)  (  2, 59, 34)  (  2, 59, 34)  (  2,  3, 32)  (  2,  4, 32)
  0 -0.3018E-01  0  0.2233E-01  0 -0.8390E-02  0 -0.1500E-01  0 -0.8318E-01
   (  2, 19, 52)  (  2, 19, 52)  (  2, 19, 52)  (  2, 21, 50)  (  2, 59, 34)
  0  0.8992E-01  0  0.2268E-01  0 -0.3725E-01  0  0.1100E-01  0 -0.3277E-02
   (  2, 59, 34)  (  2, 58, 31)  (  2, 58, 31)  (  2, 58, 31)  (  2, 22, 49)
  0 -0.2254E-02  0 -0.2323E-02  0 -0.2329E-02  0 -0.1341E-02  0 -0.4762E-02
   (  2, 21, 51)  (  2, 19, 52)  (  2, 52, 27)  (  2, 58, 31)  (  2, 59, 34)
  0  0.7595E-02  0 -0.3349E-02  0 -0.7381E-03  1  0.1001      0  0.7474E-01
   (  2, 59, 34)  (  2, 59, 34)  (  2, 57, 33)  (  1,  5, 14)  (  2,  3, 32)
  0 -0.4179E-01  0  0.2243E-01  0 -0.3741E-01  0  0.1505      0 -0.1514    
   (  2,  3, 32)  (  2, 59, 34)  (  2, 59, 34)  (  2, 59, 34)  (  2, 59, 34)
  0  0.2968E-01  0  0.6970E-02  0 -0.4839E-02  0  0.8490E-02  0  0.2970E-02
   (  2, 59, 34)  (  2, 22, 49)  (  2, 20, 52)  (  2, 19, 52)  (  2, 30, 36)
  0  0.3267E-01  0 -0.3505E-01  0  0.1040E-01  0 -0.7145E-02  0  0.2628E-02
   (  2, 59, 34)  (  2, 59, 34)  (  2, 59, 34)  (  2, 59, 34)  (  2, 52, 26)
  0  0.3858E-02  0  0.1302E-02  0 -0.2815E-02  0  0.3500E-02  0  0.5348E-02
   (  2, 58, 31)  (  2, 22, 49)  (  2, 58, 31)  (  2, 58, 31)  (  2, 59, 34)
  0 -0.5139E-02  0  0.6075E-03  1 -0.1531E-02  0  0.2625E-02  0 -0.7878E-02
   (  2, 59, 34)  (  2,  3, 32)  (  2, 59, 34)  (  2, 59, 34)  (  2, 59, 34)
  0  0.1023E-01  0 -0.3844E-02  0  0.1058E-02  0  0.8826E-03  1  0.6158E-03
   (  2, 59, 34)  (  2, 59, 34)  (  2,  3, 32)  (  2, 58, 31)  (  2, 22, 49)

 MAXIMUM RESIDUAL FOR EACH ITERATION (1 INDICATES THE FIRST INNER ITERATION):

    RESIDUAL       RESIDUAL       RESIDUAL       RESIDUAL       RESIDUAL    
   LAYER,ROW,COL  LAYER,ROW,COL  LAYER,ROW,COL  LAYER,ROW,COL  LAYER,ROW,COL
 ---------------------------------------------------------------------------
  1  0.1444      0  0.1149      0  0.9602E-01  0  0.8869E-01  0  0.6474E-01
   (  1, 10, 21)  (  1, 10, 21)  (  1, 10, 21)  (  2, 22, 49)  (  1, 11, 20)
  0 -0.4262E-01  0 -0.2271E-01  0  0.1591E-01  0  0.7450E-02  0  0.5729E-02
   (  2, 12, 20)  (  2, 12, 20)  (  2,  9, 21)  (  2, 10, 20)  (  2, 10, 20)
  0  0.3835E-02  0 -0.3707E-02  0 -0.2782E-02  0  0.3897E-02  0 -0.3395E-02
   (  2, 10, 20)  (  1, 23, 48)  (  2, 23, 48)  (  1, 23, 48)  (  2, 23, 48)
  0 -0.3424E-02  0 -0.3673E-02  0 -0.3440E-02  0  0.1670E-02  0  0.1363E-02
   (  2, 10, 20)  (  2, 10, 20)  (  2, 10, 20)  (  2, 10, 19)  (  2, 10, 19)
  0  0.1134E-02  0  0.9617E-03  0  0.8615E-03  0  0.1150E-02  0 -0.1220E-02
   (  2,  5, 21)  (  2, 20, 52)  (  2, 10, 20)  (  2, 10, 20)  (  1, 67, 44)
  0  0.8538E-03  0  0.5990E-03  0  0.4329E-03  0 -0.6954E-03  0  0.2535E-03
   (  1, 23, 37)  (  2, 20, 44)  (  2, 34,  5)  (  1, 22, 49)  (  2, 22, 40)
  1  0.1174E-01  0  0.1134E-01  0  0.9474E-02  0  0.7558E-02  0 -0.8663E-02
   (  1, 17, 25)  (  1, 17, 25)  (  1, 12, 26)  (  1, 12, 26)  (  2, 22, 49)
  0  0.4483E-02  0  0.3343E-02  0  0.1334E-02  0  0.1319E-02  0 -0.1324E-02
   (  1, 12, 26)  (  1, 12, 26)  (  1, 34,  9)  (  2, 51, 28)  (  2, 34,  6)
  0 -0.1152E-02  0 -0.7780E-03  0  0.5290E-03  0  0.5101E-03  0  0.4058E-03
   (  2, 34,  6)  (  1, 12, 26)  (  2, 27, 12)  (  2, 34,  6)  (  2, 34,  6)
  0  0.2310E-03  0 -0.1990E-03  0  0.9937E-04  0 -0.5769E-04  0 -0.1097E-03
   (  2, 34,  5)  (  2, 20, 52)  (  2, 34,  5)  (  2, 22, 41)  (  2, 22, 49)
  0 -0.3935E-04  0  0.2988E-04  0 -0.1691E-04  0 -0.1097E-04  0 -0.7599E-05
   (  2, 34,  6)  (  1, 34,  7)  (  2, 34,  5)  (  2, 33,  7)  (  2, 33,  7)
  0 -0.5675E-05  0 -0.4239E-05  0 -0.2912E-05  0 -0.2690E-05  0 -0.1201E-05
   (  1, 34,  9)  (  1, 34,  9)  (  2, 20, 52)  (  1, 34,  7)  (  1, 34,  7)
  1  0.1348E-01  0  0.1147E-01  0 -0.6959E-02  0  0.8555E-02  0 -0.7462E-02
   (  1, 12, 26)  (  2, 20, 52)  (  2, 17, 26)  (  2, 22, 49)  (  2, 22, 49)
  0 -0.4659E-02  0 -0.4896E-02  0 -0.4343E-02  0 -0.3143E-02  0 -0.1709E-02
   (  1, 21, 28)  (  1, 12, 26)  (  1, 12, 26)  (  1, 12, 26)  (  1, 12, 26)
  0 -0.9172E-03  0 -0.8910E-03  0 -0.6206E-03  0  0.5308E-03  0  0.5124E-03
   (  2, 31, 25)  (  2, 31, 25)  (  2, 31, 25)  (  1, 21, 28)  (  1, 12, 26)
  0  0.3541E-03  0  0.2778E-03  0  0.2564E-03  0 -0.3356E-03  0  0.1784E-03
   (  1, 12, 26)  (  2, 17, 24)  (  2, 12, 25)  (  2, 21, 50)  (  2, 22, 49)
  0 -0.2202E-03  0 -0.1288E-03  0  0.9424E-04  0 -0.8514E-04  0 -0.7969E-04
   (  2, 22, 49)  (  1, 12, 26)  (  2, 12, 26)  (  2, 31, 25)  (  2, 31, 25)
  0 -0.4134E-04  0  0.3630E-04  0 -0.2034E-04  0 -0.1383E-04  0 -0.6561E-05
   (  2, 31, 25)  (  2, 21, 51)  (  2, 31, 25)  (  1, 16, 27)  (  1, 16, 27)
  1  0.1039E-01  0  0.9634E-02  0  0.7466E-02  0  0.6246E-02  0  0.5636E-02
   (  1, 22, 19)  (  1, 22, 19)  (  1, 22, 19)  (  1, 22, 19)  (  2,  5, 31)
  0  0.4913E-02  0  0.3252E-02  0 -0.1544E-02  0  0.1460E-02  0 -0.2379E-02
   (  1, 13, 26)  (  1, 13, 26)  (  1, 29, 14)  (  2, 11, 34)  (  2, 22, 49)
  0  0.1529E-02  0 -0.1123E-02  0 -0.9559E-03  0 -0.9022E-03  0 -0.5806E-03
   (  2, 22, 49)  (  1, 13, 26)  (  1, 13, 26)  (  1, 13, 26)  (  1, 13, 26)
  0  0.4395E-03  0  0.2988E-03  0  0.2734E-03  0  0.1902E-03  0  0.9809E-04
   (  2, 27, 12)  (  2, 34,  6)  (  2, 34,  6)  (  2, 34,  6)  (  2, 34,  5)
  0  0.5609E-04  0  0.5141E-04  0 -0.4236E-04  0 -0.3100E-04  0 -0.2361E-04
   (  2,  5, 31)  (  2, 52, 27)  (  2,  5, 31)  (  2, 34, 10)  (  2, 34,  6)
  0 -0.1752E-04  0  0.1374E-04  0 -0.1093E-04  0 -0.7138E-05  0 -0.4150E-05
   (  2, 34,  6)  (  1, 34,  7)  (  2, 22, 49)  (  2, 34,  5)  (  1, 35, 11)
  1  0.1060E-01  0  0.7789E-02  0 -0.4168E-02  0 -0.5227E-02  0  0.2860E-02
   (  1, 23, 22)  (  2, 21, 51)  (  2, 17, 27)  (  2, 22, 49)  (  2, 21, 19)
  0 -0.3755E-02  0 -0.3615E-02  0 -0.3186E-02  0 -0.1945E-02  0 -0.1114E-02
   (  1, 22, 19)  (  1, 23, 22)  (  1, 23, 22)  (  1, 13, 26)  (  2, 22, 18)
  0 -0.1153E-02  0 -0.9976E-03  0  0.1206E-02  0  0.1276E-02  0  0.1179E-02
   (  2, 22, 18)  (  2, 22, 18)  (  1, 13, 26)  (  1, 13, 26)  (  1, 13, 26)
  0 -0.7324E-03  0  0.5735E-03  0  0.4547E-03  0  0.4335E-03  0  0.3254E-03
   (  2, 23, 22)  (  2, 21, 19)  (  2, 21, 19)  (  2, 21, 19)  (  2, 13, 25)
  0  0.1490E-03  0 -0.1086E-03  0  0.5982E-04  0 -0.7386E-04  0  0.3994E-04
   (  2, 12, 26)  (  2, 11, 30)  (  2, 23, 22)  (  2, 22, 49)  (  2, 17, 24)
  0  0.3031E-04  0  0.2505E-04  0 -0.1956E-04  0 -0.1220E-04  0  0.6690E-05
   (  2, 17, 24)  (  2, 20, 52)  (  2, 21, 19)  (  2, 34, 19)  (  2, 22, 23)
  1  0.4907E-02  0  0.4716E-02  0  0.4358E-02  0  0.3712E-02  0  0.2915E-02
   (  1, 11, 15)  (  1,  5, 20)  (  1,  5, 20)  (  1,  5, 20)  (  2,  5, 31)
  0  0.2026E-02  0 -0.1476E-02  0 -0.1282E-02  0 -0.9836E-03  0  0.6261E-03
   (  1,  5, 20)  (  2, 22, 49)  (  1, 29, 15)  (  2, 23, 48)  (  2, 29, 15)
  0 -0.6455E-03  0 -0.5859E-03  0 -0.5687E-03  0 -0.3891E-03  0 -0.2081E-03
   (  1,  5, 20)  (  1,  5, 20)  (  1,  5, 20)  (  2, 31, 13)  (  2, 29, 15)
  0 -0.1753E-03  0  0.8721E-04  0 -0.1455E-03  0  0.6158E-04  0  0.5119E-04
   (  2,  6, 19)  (  2, 34,  6)  (  2, 22, 49)  (  2, 34,  6)  (  2, 34,  6)
  0  0.4093E-04  0  0.2944E-04  0  0.1350E-04  0 -0.1056E-04  0 -0.6235E-05
   (  2, 34,  6)  (  2, 34,  5)  (  2, 14, 17)  (  2, 11, 33)  (  2, 34, 10)
  0  0.3907E-05  0  0.3169E-05  0  0.2929E-05  0  0.2340E-05  0  0.2008E-05
   (  1, 34,  7)  (  1, 34,  7)  (  1, 34,  7)  (  1, 34,  7)  (  1, 34,  7)
  1  0.7832E-02  0  0.3019E-02  0  0.1471E-02  0  0.1503E-02  0  0.1557E-02
   (  1,  5, 20)  (  1, 19, 12)  (  2,  4, 20)  (  2,  4, 20)  (  2, 22, 49)
  0  0.1211E-02  0 -0.1094E-02  0 -0.1104E-02  0 -0.9470E-03  0 -0.7409E-03
   (  2,  4, 20)  (  1,  5, 20)  (  1,  5, 20)  (  1,  5, 20)  (  1, 19, 12)
  0 -0.4005E-03  0 -0.3952E-03  0 -0.2550E-03  0 -0.2430E-03  0  0.1916E-03
   (  2,  6, 19)  (  2,  4, 20)  (  2, 24, 26)  (  2, 24, 26)  (  1, 15, 16)
  0  0.1929E-03  0  0.1781E-03  0  0.1862E-03  0  0.1672E-03  0  0.1393E-03
   (  1, 15, 16)  (  2,  6, 19)  (  2,  6, 19)  (  2,  6, 19)  (  2, 14, 16)
  0  0.1057E-03  0  0.8576E-04  0  0.7293E-04  0  0.6750E-04  0  0.6251E-04
   (  2, 14, 16)  (  2,  5, 19)  (  2,  5, 19)  (  2,  4, 20)  (  2,  4, 20)
  0 -0.3955E-04  0 -0.3631E-04  0 -0.1654E-04  0  0.7724E-05  0  0.9274E-05
   (  2, 14, 17)  (  2, 14, 17)  (  2, 14, 17)  (  2, 17, 13)  (  2, 22, 49)
  1  0.4525E-02  0  0.3779E-02  0  0.3428E-02  0  0.2902E-02  0  0.1716E-02
   (  1,  7, 15)  (  1,  7, 15)  (  1,  7, 15)  (  1,  7, 15)  (  1,  9, 13)
  0  0.1416E-02  0  0.1122E-02  0  0.8794E-03  0  0.7866E-03  0  0.5179E-03
   (  1,  9, 13)  (  1, 24, 18)  (  2,  8, 14)  (  2,  8, 14)  (  2,  8, 14)
  0 -0.4604E-03  0 -0.4505E-03  0 -0.4128E-03  0 -0.3574E-03  0 -0.2901E-03
   (  1,  7, 15)  (  1,  7, 15)  (  1,  7, 15)  (  2,  6, 17)  (  2,  6, 16)
  0 -0.2785E-03  0 -0.1691E-03  0 -0.1178E-03  0 -0.1317E-03  0  0.6310E-04
   (  2,  6, 16)  (  2, 25, 17)  (  2,  6, 20)  (  2, 22, 49)  (  1,  7, 15)
  0  0.6138E-04  0  0.5062E-04  0  0.3408E-04  0  0.2035E-04  0  0.1918E-04
   (  1,  7, 15)  (  1,  7, 15)  (  1,  7, 15)  (  1,  9, 13)  (  1,  9, 13)
  0 -0.1086E-04  0  0.7730E-05  0  0.4962E-05  0  0.4976E-05  0  0.3851E-05
   (  2,  5, 31)  (  2,  5, 17)  (  2,  4, 19)  (  2,  4, 19)  (  2, 51, 28)
  1  0.4357E-02  0  0.2211E-02  0 -0.1360E-02  0 -0.1225E-02  0 -0.1326E-02
   (  1,  5,  9)  (  1,  5,  9)  (  1, 18, 18)  (  1, 20, 15)  (  1,  7, 15)
  0 -0.1338E-02  0 -0.1294E-02  0 -0.1139E-02  0 -0.9006E-03  0 -0.7299E-03
   (  1,  7, 15)  (  1,  7, 15)  (  1,  7, 15)  (  1,  7, 15)  (  2,  8, 14)
  0 -0.4627E-03  0 -0.3648E-03  0  0.3944E-03  0  0.4322E-03  0  0.3507E-03
   (  1,  5,  9)  (  2,  9, 12)  (  2,  8, 14)  (  2,  8, 14)  (  2,  8, 14)
  0  0.3064E-03  0  0.2301E-03  0  0.1527E-03  0 -0.1373E-03  0  0.1090E-03
   (  2,  8, 14)  (  1,  7, 15)  (  1,  5,  9)  (  2, 22, 49)  (  1,  5,  9)
  0  0.8970E-04  0  0.6588E-04  0  0.6322E-04  0 -0.4486E-04  0 -0.3007E-04
   (  2,  5,  8)  (  2,  5,  8)  (  2,  5,  8)  (  2,  8, 14)  (  2,  8, 14)
  0 -0.2790E-04  0  0.1116E-04  0 -0.6643E-05  0 -0.4906E-05  0  0.3499E-05
   (  2,  8, 14)  (  1,  8, 14)  (  2,  4, 19)  (  2,  4, 19)  (  2,  5,  9)
  1  0.2452E-02  0  0.1659E-02  0  0.1607E-02  0  0.1343E-02  0  0.1024E-02
   (  1,  8, 16)  (  1,  4, 18)  (  1,  4, 18)  (  1,  4, 18)  (  1,  4, 18)
  0  0.8528E-03  0  0.7892E-03  0  0.7228E-03  0  0.5276E-03  0  0.3221E-03
   (  1, 18, 18)  (  1, 18, 18)  (  1, 18, 18)  (  2,  5, 17)  (  2,  5, 17)
  0  0.2818E-03  0  0.2637E-03  0 -0.2538E-03  0 -0.2247E-03  0 -0.1651E-03
   (  2,  7, 16)  (  2,  7, 16)  (  2,  5, 16)  (  1, 18, 18)  (  2,  6, 15)
  0  0.9085E-04  0 -0.8818E-04  0 -0.7049E-04  0 -0.6155E-04  0 -0.3928E-04
   (  2, 20, 15)  (  2, 17, 17)  (  2, 17, 17)  (  2, 17, 17)  (  2, 17, 18)
  0 -0.2967E-04  0 -0.2810E-04  0 -0.1739E-04  0  0.1212E-04  0  0.1194E-04
   (  2, 18, 17)  (  2, 18, 17)  (  2, 18, 17)  (  2, 17, 17)  (  2, 17, 17)
  0  0.6544E-05  0 -0.5598E-05  0  0.4122E-05  0  0.1852E-05  0  0.1557E-05
   (  2, 17, 17)  (  2, 21, 51)  (  2,  5, 15)  (  2,  4, 17)  (  2,  4, 17)
  1  0.1892E-02  0  0.1375E-02  0 -0.8429E-03  0 -0.5628E-03  0  0.3918E-03
   (  1,  4, 18)  (  1,  4, 18)  (  1,  5, 15)  (  1,  5, 15)  (  2,  4, 17)
  0  0.3411E-03  0  0.2709E-03  0  0.2126E-03  0 -0.1320E-03  0 -0.1128E-03
   (  2,  4, 17)  (  2,  4, 17)  (  2,  4, 17)  (  1,  4, 18)  (  1,  4, 18)
  0 -0.8198E-04  0 -0.1090E-03  0 -0.1302E-03  0 -0.1343E-03  0 -0.9575E-04
   (  2,  7, 16)  (  2,  7, 16)  (  2,  7, 16)  (  2,  4, 17)  (  2,  4, 17)
  0 -0.5287E-04  0 -0.4696E-04  0 -0.3248E-04  0 -0.2970E-04  0  0.2483E-04
   (  2,  4, 17)  (  2,  4, 17)  (  2,  5, 16)  (  2,  5, 16)  (  2, 22, 49)
  0 -0.1531E-04  0  0.9183E-05  0  0.6083E-05  0  0.5003E-05  0  0.3485E-05
   (  2, 11,  9)  (  2,  4, 12)  (  2,  4, 12)  (  2,  4, 17)  (  2,  4, 17)
  0 -0.2803E-05  0 -0.2740E-05  0 -0.2035E-05  0 -0.2057E-05  0 -0.1169E-05
   (  2,  3, 19)  (  2,  3, 19)  (  2,  3, 19)  (  2,  5, 10)  (  2,  5, 10)
  1  0.7878E-03  0 -0.3720E-03  0  0.2882E-03  0  0.2862E-03  0  0.2616E-03
   (  1,  4, 11)  (  2,  6, 17)  (  2,  5, 13)  (  2,  5, 13)  (  2,  5, 13)
  0  0.2248E-03  0  0.1773E-03  0  0.1074E-03  0  0.9486E-04  0  0.1049E-03
   (  2,  5, 13)  (  2,  5, 13)  (  2,  5, 13)  (  2,  6, 17)  (  2,  6, 17)
  0 -0.6981E-04  0 -0.6912E-04  0 -0.4394E-04  0 -0.4073E-04  0 -0.4178E-04
   (  2,  5, 13)  (  2,  5, 13)  (  2,  5, 13)  (  2,  6, 11)  (  2,  6, 17)
  0 -0.4008E-04  0 -0.3618E-04  0 -0.2168E-04  0 -0.1365E-04  0  0.1127E-04
   (  2,  6, 17)  (  2,  6, 14)  (  2,  6, 14)  (  2, 22, 49)  (  2,  5, 13)
  0  0.9668E-05  0  0.6083E-05  0  0.5719E-05  0  0.4126E-05  0  0.3753E-05
   (  2,  5, 13)  (  2,  5, 13)  (  1,  4, 11)  (  1,  4, 11)  (  1,  4, 11)
  0  0.2762E-05  0 -0.2210E-05  0 -0.1355E-05  0 -0.5686E-06  1 -0.6714E-03
   (  1,  4, 11)  (  1,  4, 13)  (  1,  4, 13)  (  1,  5, 16)  (  1,  5, 14)
  0  0.3509E-03  0  0.2915E-03  0  0.1619E-03  0 -0.1225E-03  0  0.1056E-03
   (  2,  6, 17)  (  2,  6, 17)  (  2,  6, 17)  (  1,  5, 15)  (  1,  6, 13)
  0  0.9328E-04  0 -0.9184E-04  0 -0.7372E-04  0 -0.6065E-04  0 -0.4456E-04
   (  1,  6, 13)  (  2,  6, 13)  (  2,  6, 13)  (  2,  6, 17)  (  2,  6, 17)
  0  0.2624E-04  0  0.2745E-04  0  0.3166E-04  0  0.2561E-04  0  0.2263E-04
   (  2,  6, 12)  (  2,  6, 13)  (  2,  6, 13)  (  2,  6, 13)  (  2,  6, 13)
  0  0.2221E-04  0  0.1079E-04  0 -0.8364E-05  0 -0.7866E-05  0 -0.6588E-05
   (  2,  6, 17)  (  2,  6, 14)  (  2,  4, 16)  (  2,  4, 16)  (  2,  4, 16)
  0 -0.5813E-05  0 -0.3231E-05  0  0.2692E-05  0  0.2049E-05  0  0.1916E-05
   (  2,  4, 16)  (  1,  5, 18)  (  2,  4, 17)  (  2,  4, 17)  (  2,  4, 17)
  1  0.4144E-03  0  0.3109E-03  0  0.2423E-03  0  0.1843E-03  0  0.1071E-03
   (  1,  6, 17)  (  1,  6, 17)  (  2,  5, 15)  (  2,  5, 15)  (  2,  5, 15)
  0 -0.8665E-04  0 -0.8078E-04  0 -0.6887E-04  0 -0.4783E-04  0 -0.3818E-04
   (  1,  6, 14)  (  1,  6, 14)  (  1,  6, 14)  (  1,  6, 14)  (  2,  5, 15)
  0 -0.3311E-04  0 -0.2174E-04  0 -0.1806E-04  0 -0.1766E-04  0 -0.1635E-04
   (  2,  5, 15)  (  2,  5, 15)  (  2,  5, 15)  (  2,  4, 16)  (  2,  4, 16)
  0 -0.1568E-04  0 -0.1554E-04  0 -0.1298E-04  0 -0.7045E-05  0 -0.3959E-05
   (  2,  4, 16)  (  2,  6, 14)  (  2,  6, 14)  (  2,  6, 16)  (  2, 22, 49)
  0  0.3817E-05  0  0.3670E-05  0  0.2548E-05  0  0.1364E-05  0 -0.1091E-05
   (  2,  4, 16)  (  2,  4, 16)  (  2,  4, 16)  (  2,  4, 16)  (  2,  4, 17)
  0 -0.9867E-06  0  0.6861E-06  0  0.3381E-06  1 -0.1249E-03  0  0.7034E-04
   (  2,  4, 17)  (  1,  5, 15)  (  1,  7, 13)  (  1,  6, 14)  (  2,  5, 16)
  0  0.5111E-04  0  0.4647E-04  0  0.3568E-04  0  0.2595E-04  0 -0.2188E-04
   (  2,  5, 16)  (  2,  5, 16)  (  2,  5, 16)  (  2,  5, 16)  (  2,  5, 13)
  0 -0.2031E-04  0  0.1436E-04  0  0.1017E-04  0 -0.7082E-05  0 -0.6460E-05
   (  2,  5, 13)  (  1,  6, 14)  (  1,  6, 14)  (  2,  5, 17)  (  2,  5, 16)
  0  0.4900E-05  0  0.5357E-05  0  0.5341E-05  0  0.5124E-05  0 -0.2969E-05
   (  2,  5, 15)  (  2,  5, 14)  (  2,  5, 14)  (  2,  5, 14)  (  1,  6, 14)
  0  0.2626E-05  0  0.2599E-05  0  0.2023E-05  0  0.1223E-05  0  0.8967E-06
   (  2,  6, 14)  (  2,  6, 14)  (  2,  6, 14)  (  2,  6, 14)  (  2,  6, 14)
  0  0.5740E-06  0  0.5615E-06  1  0.6107E-05  0  0.4372E-05  0  0.2447E-05
   (  2,  6, 14)  (  2,  4, 15)  (  1,  4, 14)  (  1,  4, 14)  (  1,  4, 14)
  0  0.2037E-05  0 -0.1045E-05  0 -0.7651E-06  0 -0.9723E-06  1 -0.9443E-06
   (  1,  4, 14)  (  2,  4, 14)  (  2,  4, 14)  (  1,  4, 14)  (  1,  4, 14)



 OUTPUT CONTROL FOR STRESS PERIOD    1   TIME STEP    1
    SAVE HEAD FOR ALL LAYERS
    SAVE DRAWDOWN FOR ALL LAYERS
    SAVE BUDGET
    PRINT BUDGET
 UBDSV2 SAVING "   CONSTANT HEAD" ON UNIT   9 AT TIME STEP  1, STRESS PERIOD   1
 UBDSV1 SAVING "FLOW RIGHT FACE " ON UNIT   9 AT TIME STEP  1, STRESS PERIOD   1
 UBDSV1 SAVING "FLOW FRONT FACE " ON UNIT   9 AT TIME STEP  1, STRESS PERIOD   1
 UBDSV1 SAVING "FLOW LOWER FACE " ON UNIT   9 AT TIME STEP  1, STRESS PERIOD   1
 UBDSV4 SAVING "           WELLS" ON UNIT   9 AT TIME STEP  1, STRESS PERIOD   1
 UBDSV4 SAVING "   RIVER LEAKAGE" ON UNIT   9 AT TIME STEP  1, STRESS PERIOD   1
 UBDSV3 SAVING "              ET" ON UNIT   9 AT TIME STEP  1, STRESS PERIOD   1
 UBDSV4 SAVING " HEAD DEP BOUNDS" ON UNIT   9 AT TIME STEP  1, STRESS PERIOD   1
 UBDSV3 SAVING "        RECHARGE" ON UNIT   9 AT TIME STEP  1, STRESS PERIOD   1
 SOLVING FOR ZETA FOR LAYER     2 ZONE     2


     2 CALLS TO PCG ROUTINE FOR TIME STEP   1 IN STRESS PERIOD    1
     4 TOTAL ITERATIONS

 MAXIMUM HEAD CHANGE FOR EACH ITERATION (1 INDICATES THE FIRST INNER ITERATION):

    HEAD CHANGE    HEAD CHANGE    HEAD CHANGE    HEAD CHANGE    HEAD CHANGE 
   LAYER,ROW,COL  LAYER,ROW,COL  LAYER,ROW,COL  LAYER,ROW,COL  LAYER,ROW,COL
 ---------------------------------------------------------------------------
  1   17.25      0 -0.3137E-01  0 -0.1299E-03  1 -0.5275E-06
   (  1, 14,  5)  (  1, 27,  8)  (  1, 29,  9)  (  1, 28, 10)

 MAXIMUM RESIDUAL FOR EACH ITERATION (1 INDICATES THE FIRST INNER ITERATION):

    RESIDUAL       RESIDUAL       RESIDUAL       RESIDUAL       RESIDUAL    
   LAYER,ROW,COL  LAYER,ROW,COL  LAYER,ROW,COL  LAYER,ROW,COL  LAYER,ROW,COL
 ---------------------------------------------------------------------------
  1  0.2289E-05  0  0.9794E-08  0  0.4087E-10  1  0.2266E-12
   (  1, 27,  8)  (  1, 29,  9)  (  1, 28, 10)  (  1, 29,  9)


 UBUDSV SAVING "      ZETASRF  1" ON UNIT170 AT TIME STEP  1, STRESS PERIOD    1


                      VOLUMETRIC SWI ZONE BUDGET FOR ENTIRE MODEL
                     AT END OF TIME STEP    1 IN STRESS PERIOD   1
                                      ZONE     1
  -----------------------------------------------------------------------------------

        CUMULATIVE VOLUMES      L**3       RATES FOR THIS TIME STEP      L**3/T
        ------------------                 ------------------------

              IN:                                      IN:
              ---                                      ---
             BOUNDARIES =    10068995.0000            BOUNDARIES =           0.1596
          CONSTANT HEAD =           0.0000         CONSTANT HEAD =           0.0000
            ZONE CHANGE =    80433752.0000           ZONE CHANGE =           1.2753
       ZONE CHG TIP/TOE =      849414.5000      ZONE CHG TIP/TOE =       1.3467E-02
            ZONE MIXING =           0.0000           ZONE MIXING =           0.0000

               TOTAL IN =    91352160.0000              TOTAL IN =           1.4484

             OUT:                                     OUT:
             ----                                     ----
             BOUNDARIES =     3482418.0000            BOUNDARIES =       5.5213E-02
          CONSTANT HEAD =           0.0000         CONSTANT HEAD =           0.0000
            ZONE CHANGE =     1376697.5000           ZONE CHANGE =       2.1827E-02
       ZONE CHG TIP/TOE =      755051.3750      ZONE CHG TIP/TOE =       1.1971E-02
            ZONE MIXING =           0.0000           ZONE MIXING =           0.0000

              TOTAL OUT =     5614167.0000             TOTAL OUT =       8.9012E-02

               IN - OUT =    85737992.0000              IN - OUT =           1.3594

    PERCENT DISCREPANCY =         176.84     PERCENT DISCREPANCY =         176.84



                      VOLUMETRIC SWI ZONE BUDGET FOR ENTIRE MODEL
                     AT END OF TIME STEP    1 IN STRESS PERIOD   1
                                      ZONE     2
  -----------------------------------------------------------------------------------

        CUMULATIVE VOLUMES      L**3       RATES FOR THIS TIME STEP      L**3/T
        ------------------                 ------------------------

              IN:                                      IN:
              ---                                      ---
             BOUNDARIES =           0.0000            BOUNDARIES =           0.0000
          CONSTANT HEAD =           0.0000         CONSTANT HEAD =           0.0000
            ZONE CHANGE =      380323.3125           ZONE CHANGE =       6.0300E-03
       ZONE CHG TIP/TOE =      755051.3750      ZONE CHG TIP/TOE =       1.1971E-02
            ZONE MIXING =           0.0000           ZONE MIXING =           0.0000

               TOTAL IN =     1135374.7500              TOTAL IN =       1.8001E-02

             OUT:                                     OUT:
             ----                                     ----
             BOUNDARIES =     6587512.0000            BOUNDARIES =           0.1044
          CONSTANT HEAD =           0.0000         CONSTANT HEAD =           0.0000
            ZONE CHANGE =      274273.2188           ZONE CHANGE =       4.3486E-03
       ZONE CHG TIP/TOE =      620341.3125      ZONE CHG TIP/TOE =       9.8354E-03
            ZONE MIXING =           0.0000           ZONE MIXING =           0.0000

              TOTAL OUT =     7482126.5000             TOTAL OUT =           0.1186

               IN - OUT =    -6346752.0000              IN - OUT =          -0.1006

    PERCENT DISCREPANCY =        -147.30     PERCENT DISCREPANCY =        -147.30


 HEAD WILL BE SAVED ON UNIT   37 AT END OF TIME STEP    1, STRESS PERIOD    1

 DRAWDOWN WILL BE SAVED ON UNIT   38 AT END OF TIME STEP    1, STRESS PERIOD    1
1
  VOLUMETRIC BUDGET FOR ENTIRE MODEL AT END OF TIME STEP    1, STRESS PERIOD   1
  ------------------------------------------------------------------------------

     CUMULATIVE VOLUMES      L**3       RATES FOR THIS TIME STEP      L**3/T
     ------------------                 ------------------------

           IN:                                      IN:
           ---                                      ---
             STORAGE =           0.0000               STORAGE =           0.0000
       CONSTANT HEAD =           0.0000         CONSTANT HEAD =           0.0000
               WELLS =           0.0000                 WELLS =           0.0000
       RIVER LEAKAGE =     2184235.5000         RIVER LEAKAGE =       3.4631E-02
                  ET =           0.0000                    ET =           0.0000
     HEAD DEP BOUNDS =           0.0000       HEAD DEP BOUNDS =           0.0000
            RECHARGE =     8413401.0000              RECHARGE =           0.1334
          SWIADDTOCH =           0.0000            SWIADDTOCH =           0.0000

            TOTAL IN =    10597636.0000              TOTAL IN =           0.1680

          OUT:                                     OUT:
          ----                                     ----
             STORAGE =           0.0000               STORAGE =           0.0000
       CONSTANT HEAD =           0.0000         CONSTANT HEAD =           0.0000
               WELLS =           0.0000                 WELLS =           0.0000
       RIVER LEAKAGE =      468805.9688         RIVER LEAKAGE =       7.4329E-03
                  ET =     3542253.2500                    ET =       5.6162E-02
     HEAD DEP BOUNDS =     6587512.0000       HEAD DEP BOUNDS =           0.1044
            RECHARGE =           0.0000              RECHARGE =           0.0000
          SWIADDTOCH =           0.0000            SWIADDTOCH =           0.0000

           TOTAL OUT =    10598571.0000             TOTAL OUT =           0.1680

            IN - OUT =        -935.0000              IN - OUT =      -1.4812E-05

 PERCENT DISCREPANCY =          -0.01     PERCENT DISCREPANCY =          -0.01






         TIME SUMMARY AT END OF TIME STEP    1 IN STRESS PERIOD    1
                    SECONDS     MINUTES      HOURS       DAYS        YEARS
                    -----------------------------------------------------------
   TIME STEP LENGTH 6.30720E+07 1.05120E+06  17520.      730.00      1.9986    
 STRESS PERIOD TIME 6.30720E+07 1.05120E+06  17520.      730.00      1.9986    
         TOTAL TIME 6.30720E+07 1.05120E+06  17520.      730.00      1.9986    
1
 
 SOLVING FOR HEAD 
     3 CALLS TO PCG ROUTINE FOR TIME STEP   2 IN STRESS PERIOD    1
    29 TOTAL ITERATIONS

 MAXIMUM HEAD CHANGE FOR EACH ITERATION (1 INDICATES THE FIRST INNER ITERATION):

    HEAD CHANGE    HEAD CHANGE    HEAD CHANGE    HEAD CHANGE    HEAD CHANGE 
   LAYER,ROW,COL  LAYER,ROW,COL  LAYER,ROW,COL  LAYER,ROW,COL  LAYER,ROW,COL
 ---------------------------------------------------------------------------
  1  0.2105      0 -0.1092      0 -0.7104E-01  0  0.7312      0 -0.7054    
   (  2, 32,  6)  (  1, 35,  8)  (  2, 22, 49)  (  2, 59, 34)  (  2, 59, 34)
  0  0.4964E-01  0  0.3239E-01  0 -0.4801E-01  0 -0.2451E-01  0 -0.1012E-01
   (  2,  3, 32)  (  2, 19, 52)  (  2,  3, 32)  (  2, 58, 31)  (  2, 58, 31)
  0  0.2620E-01  0 -0.1010E-01  0  0.2159E-01  0 -0.1245E-01  0  0.5682E-02
   (  2, 58, 31)  (  2, 59, 34)  (  2, 59, 34)  (  2, 59, 34)  (  2, 58, 31)
  0  0.2228E-02  0 -0.9380E-03  1  0.7271E-02  0 -0.8730E-02  0 -0.6218E-02
   (  2, 19, 52)  (  2, 19, 52)  (  2, 19, 52)  (  2, 19, 52)  (  2, 58, 31)
  0  0.2731E-02  0 -0.8874E-02  0  0.1635E-01  0 -0.8636E-02  0  0.2268E-02
   (  2, 22, 49)  (  2, 59, 34)  (  2, 59, 34)  (  2, 59, 34)  (  2,  3, 32)
  0 -0.1665E-02  0  0.1691E-02  0 -0.6154E-03  1  0.2812E-03
   (  2,  3, 32)  (  2, 58, 31)  (  2, 58, 31)  (  2, 19, 52)

 MAXIMUM RESIDUAL FOR EACH ITERATION (1 INDICATES THE FIRST INNER ITERATION):

    RESIDUAL       RESIDUAL       RESIDUAL       RESIDUAL       RESIDUAL    
   LAYER,ROW,COL  LAYER,ROW,COL  LAYER,ROW,COL  LAYER,ROW,COL  LAYER,ROW,COL
 ---------------------------------------------------------------------------
  1  0.4363E-03  0  0.2199E-03  0  0.1911E-03  0  0.1007E-03  0 -0.7799E-04
   (  2, 14,  5)  (  2, 14,  5)  (  2, 14,  5)  (  2, 14,  5)  (  1, 14,  5)
  0 -0.6122E-04  0 -0.5113E-04  0 -0.3487E-04  0 -0.2806E-04  0 -0.1439E-04
   (  1, 14,  5)  (  1, 14,  5)  (  1, 14,  5)  (  1, 14,  5)  (  1, 14,  5)
  0 -0.9734E-05  0 -0.4313E-05  0 -0.4074E-05  0 -0.2566E-05  0  0.2096E-05
   (  1, 14,  5)  (  1, 15,  4)  (  1, 15,  4)  (  1, 15,  4)  (  2, 21,  6)
  0  0.2142E-05  0  0.2138E-05  1  0.5769E-04  0  0.3023E-04  0  0.1891E-04
   (  1, 14,  5)  (  1, 14,  5)  (  1, 33,  9)  (  1, 33,  9)  (  1, 33,  9)
  0  0.1472E-04  0  0.6780E-05  0  0.5841E-05  0  0.3484E-05  0  0.2530E-05
   (  1, 33,  9)  (  1, 33,  9)  (  1, 33,  9)  (  2, 33,  8)  (  2, 33,  8)
  0  0.1764E-05  0 -0.1410E-05  0 -0.1040E-05  1 -0.1062E-05
   (  2, 33,  8)  (  1, 33,  9)  (  1, 33,  9)  (  1, 33,  9)



 OUTPUT CONTROL FOR STRESS PERIOD    1   TIME STEP    2
    SAVE HEAD FOR ALL LAYERS
    SAVE DRAWDOWN FOR ALL LAYERS
    SAVE BUDGET
    PRINT BUDGET
 UBDSV2 SAVING "   CONSTANT HEAD" ON UNIT   9 AT TIME STEP  2, STRESS PERIOD   1
 UBDSV1 SAVING "FLOW RIGHT FACE " ON UNIT   9 AT TIME STEP  2, STRESS PERIOD   1
 UBDSV1 SAVING "FLOW FRONT FACE " ON UNIT   9 AT TIME STEP  2, STRESS PERIOD   1
 UBDSV1 SAVING "FLOW LOWER FACE " ON UNIT   9 AT TIME STEP  2, STRESS PERIOD   1
 UBDSV4 SAVING "           WELLS" ON UNIT   9 AT TIME STEP  2, STRESS PERIOD   1
 UBDSV4 SAVING "   RIVER LEAKAGE" ON UNIT   9 AT TIME STEP  2, STRESS PERIOD   1
 UBDSV3 SAVING "              ET" ON UNIT   9 AT TIME STEP  2, STRESS PERIOD   1
 UBDSV4 SAVING " HEAD DEP BOUNDS" ON UNIT   9 AT TIME STEP  2, STRESS PERIOD   1
 UBDSV3 SAVING "        RECHARGE" ON UNIT   9 AT TIME STEP  2, STRESS PERIOD   1
 SOLVING FOR ZETA FOR LAYER     1 ZONE     2
     2 CALLS TO PCG ROUTINE FOR TIME STEP   2 IN STRESS PERIOD    1
     6 TOTAL ITERATIONS

 MAXIMUM HEAD CHANGE FOR EACH ITERATION (1 INDICATES THE FIRST INNER ITERATION):

    HEAD CHANGE    HEAD CHANGE    HEAD CHANGE    HEAD CHANGE    HEAD CHANGE 
   LAYER,ROW,COL  LAYER,ROW,COL  LAYER,ROW,COL  LAYER,ROW,COL  LAYER,ROW,COL
 ---------------------------------------------------------------------------
  1  -18.53      0  -1.558      0  0.1002      0  0.2703E-02  0 -0.1491E-03
   (  1, 32,  6)  (  1, 34,  5)  (  1, 34,  6)  (  1, 32,  6)  (  1, 32,  6)
  1 -0.6059E-05
   (  1, 33,  5)

 MAXIMUM RESIDUAL FOR EACH ITERATION (1 INDICATES THE FIRST INNER ITERATION):

    RESIDUAL       RESIDUAL       RESIDUAL       RESIDUAL       RESIDUAL    
   LAYER,ROW,COL  LAYER,ROW,COL  LAYER,ROW,COL  LAYER,ROW,COL  LAYER,ROW,COL
 ---------------------------------------------------------------------------
  1  0.1840E-03  0 -0.1034E-04  0  0.3570E-06  0  0.1695E-07  0  0.9008E-09
   (  1, 33,  5)  (  1, 22,  6)  (  1, 33,  5)  (  1, 32,  6)  (  1, 33,  5)
  1  0.4323E-10
   (  1, 32,  6)


 SOLVING FOR ZETA FOR LAYER     2 ZONE     2
     2 CALLS TO PCG ROUTINE FOR TIME STEP   2 IN STRESS PERIOD    1
     6 TOTAL ITERATIONS

 MAXIMUM HEAD CHANGE FOR EACH ITERATION (1 INDICATES THE FIRST INNER ITERATION):

    HEAD CHANGE    HEAD CHANGE    HEAD CHANGE    HEAD CHANGE    HEAD CHANGE 
   LAYER,ROW,COL  LAYER,ROW,COL  LAYER,ROW,COL  LAYER,ROW,COL  LAYER,ROW,COL
 ---------------------------------------------------------------------------
  1  -22.17      0 -0.5878      0 -0.3817E-01  0  0.2624E-02  0 -0.4307E-04
   (  1, 31,  6)  (  1, 33,  6)  (  1, 13,  4)  (  1, 22,  7)  (  1, 33,  6)
  1 -0.2329E-05
   (  1, 32,  6)

 MAXIMUM RESIDUAL FOR EACH ITERATION (1 INDICATES THE FIRST INNER ITERATION):

    RESIDUAL       RESIDUAL       RESIDUAL       RESIDUAL       RESIDUAL    
   LAYER,ROW,COL  LAYER,ROW,COL  LAYER,ROW,COL  LAYER,ROW,COL  LAYER,ROW,COL
 ---------------------------------------------------------------------------
  1  0.6386E-04  0  0.4936E-05  0 -0.2219E-06  0  0.4142E-08  0  0.2658E-09
   (  1, 33,  5)  (  1, 13,  4)  (  1, 22,  7)  (  1, 33,  5)  (  1, 34,  5)
  1  0.2449E-10
   (  1, 33,  5)


 UBUDSV SAVING "      ZETASRF  1" ON UNIT170 AT TIME STEP  2, STRESS PERIOD    1


                      VOLUMETRIC SWI ZONE BUDGET FOR ENTIRE MODEL
                     AT END OF TIME STEP    2 IN STRESS PERIOD   1
                                      ZONE     1
  -----------------------------------------------------------------------------------

        CUMULATIVE VOLUMES      L**3       RATES FOR THIS TIME STEP      L**3/T
        ------------------                 ------------------------

              IN:                                      IN:
              ---                                      ---
             BOUNDARIES =    20135080.0000            BOUNDARIES =           0.1596
          CONSTANT HEAD =           0.0000         CONSTANT HEAD =           0.0000
            ZONE CHANGE =    80552744.0000           ZONE CHANGE =       1.8866E-03
       ZONE CHG TIP/TOE =     2305066.2500      ZONE CHG TIP/TOE =       2.3079E-02
            ZONE MIXING =           0.0000           ZONE MIXING =           0.0000

               TOTAL IN =   102992888.0000              TOTAL IN =           0.1846

             OUT:                                     OUT:
             ----                                     ----
             BOUNDARIES =     9816687.0000            BOUNDARIES =           0.1004
          CONSTANT HEAD =           0.0000         CONSTANT HEAD =           0.0000
            ZONE CHANGE =     4583003.0000           ZONE CHANGE =       5.0836E-02
       ZONE CHG TIP/TOE =     2201686.0000      ZONE CHG TIP/TOE =       2.2936E-02
            ZONE MIXING =           0.0000           ZONE MIXING =           0.0000

              TOTAL OUT =    16601376.0000             TOTAL OUT =           0.1742

               IN - OUT =    86391512.0000              IN - OUT =       1.0361E-02

    PERCENT DISCREPANCY =         144.47     PERCENT DISCREPANCY =           5.78



                      VOLUMETRIC SWI ZONE BUDGET FOR ENTIRE MODEL
                     AT END OF TIME STEP    2 IN STRESS PERIOD   1
                                      ZONE     2
  -----------------------------------------------------------------------------------

        CUMULATIVE VOLUMES      L**3       RATES FOR THIS TIME STEP      L**3/T
        ------------------                 ------------------------

              IN:                                      IN:
              ---                                      ---
             BOUNDARIES =           0.0000            BOUNDARIES =           0.0000
          CONSTANT HEAD =           0.0000         CONSTANT HEAD =           0.0000
            ZONE CHANGE =     2183905.5000           ZONE CHANGE =       2.8596E-02
       ZONE CHG TIP/TOE =     2201686.0000      ZONE CHG TIP/TOE =       2.2936E-02
            ZONE MIXING =           0.0000           ZONE MIXING =           0.0000

               TOTAL IN =     4385591.5000              TOTAL IN =       5.1532E-02

             OUT:                                     OUT:
             ----                                     ----
             BOUNDARIES =    10319898.0000            BOUNDARIES =       5.9177E-02
          CONSTANT HEAD =           0.0000         CONSTANT HEAD =           0.0000
            ZONE CHANGE =      391030.5000           ZONE CHANGE =       1.8512E-03
       ZONE CHG TIP/TOE =      733768.1250      ZONE CHG TIP/TOE =       1.7984E-03
            ZONE MIXING =           0.0000           ZONE MIXING =           0.0000

              TOTAL OUT =    11444697.0000             TOTAL OUT =       6.2826E-02

               IN - OUT =    -7059105.5000              IN - OUT =      -1.1294E-02

    PERCENT DISCREPANCY =         -89.18     PERCENT DISCREPANCY =         -19.75


 HEAD WILL BE SAVED ON UNIT   37 AT END OF TIME STEP    2, STRESS PERIOD    1

 DRAWDOWN WILL BE SAVED ON UNIT   38 AT END OF TIME STEP    2, STRESS PERIOD    1
1
  VOLUMETRIC BUDGET FOR ENTIRE MODEL AT END OF TIME STEP    2, STRESS PERIOD   1
  ------------------------------------------------------------------------------

     CUMULATIVE VOLUMES      L**3       RATES FOR THIS TIME STEP      L**3/T
     ------------------                 ------------------------

           IN:                                      IN:
           ---                                      ---
             STORAGE =           0.0000               STORAGE =           0.0000
       CONSTANT HEAD =           0.0000         CONSTANT HEAD =           0.0000
               WELLS =           0.0000                 WELLS =           0.0000
       RIVER LEAKAGE =     4373028.0000         RIVER LEAKAGE =       3.4703E-02
                  ET =           0.0000                    ET =           0.0000
     HEAD DEP BOUNDS =           0.0000       HEAD DEP BOUNDS =           0.0000
            RECHARGE =    16826802.0000              RECHARGE =           0.1334
          SWIADDTOCH =           0.0000            SWIADDTOCH =           0.0000

            TOTAL IN =    21199830.0000              TOTAL IN =           0.1681

          OUT:                                     OUT:
          ----                                     ----
             STORAGE =           0.0000               STORAGE =           0.0000
       CONSTANT HEAD =           0.0000         CONSTANT HEAD =           0.0000
               WELLS =           0.0000                 WELLS =           0.0000
       RIVER LEAKAGE =      931849.2500         RIVER LEAKAGE =       7.3415E-03
                  ET =     7141023.0000                    ET =       5.7058E-02
     HEAD DEP BOUNDS =    13128463.0000       HEAD DEP BOUNDS =           0.1037
            RECHARGE =           0.0000              RECHARGE =           0.0000
          SWIADDTOCH =           0.0000            SWIADDTOCH =           0.0000

           TOTAL OUT =    21201336.0000             TOTAL OUT =           0.1681

            IN - OUT =       -1506.0000              IN - OUT =      -9.0450E-06

 PERCENT DISCREPANCY =          -0.01     PERCENT DISCREPANCY =          -0.01






         TIME SUMMARY AT END OF TIME STEP    2 IN STRESS PERIOD    1
                    SECONDS     MINUTES      HOURS       DAYS        YEARS
                    -----------------------------------------------------------
   TIME STEP LENGTH 6.30720E+07 1.05120E+06  17520.      730.00      1.9986    
 STRESS PERIOD TIME 1.26144E+08 2.10240E+06  35040.      1460.0      3.9973    
         TOTAL TIME 1.26144E+08 2.10240E+06  35040.      1460.0      3.9973    
1
 
 SOLVING FOR HEAD 
     3 CALLS TO PCG ROUTINE FOR TIME STEP   3 IN STRESS PERIOD    1
    35 TOTAL ITERATIONS

 MAXIMUM HEAD CHANGE FOR EACH ITERATION (1 INDICATES THE FIRST INNER ITERATION):

    HEAD CHANGE    HEAD CHANGE    HEAD CHANGE    HEAD CHANGE    HEAD CHANGE 
   LAYER,ROW,COL  LAYER,ROW,COL  LAYER,ROW,COL  LAYER,ROW,COL  LAYER,ROW,COL
 ---------------------------------------------------------------------------
  1 -0.3681      0 -0.2433      0 -0.1683      0  0.1189      0 -0.5466    
   (  2, 16,  6)  (  1, 35,  8)  (  2, 19, 52)  (  1, 35,  8)  (  2, 59, 34)
  0  0.5170      0 -0.4997E-01  0 -0.2525E-01  0 -0.1787E-01  0 -0.2681E-01
   (  2, 59, 34)  (  2, 59, 34)  (  2, 58, 31)  (  2, 20, 52)  (  2,  3, 32)
  0  0.1825E-01  0 -0.1226E-01  0 -0.1627E-01  0  0.2046E-01  0 -0.3165E-01
   (  2,  3, 32)  (  2, 58, 31)  (  2, 59, 34)  (  2, 59, 34)  (  2, 59, 34)
  0  0.2776E-01  0 -0.1117E-01  0  0.3567E-02  0 -0.2636E-02  0 -0.1545E-02
   (  2, 59, 34)  (  2, 58, 31)  (  2, 58, 31)  (  2, 58, 31)  (  2, 19, 52)
  0 -0.1144E-02  0 -0.8070E-02  0  0.8734E-02  0 -0.3065E-02  0  0.1723E-02
   (  2, 22, 49)  (  2, 59, 34)  (  2, 59, 34)  (  2, 59, 34)  (  2, 59, 34)
  0 -0.6999E-03  1 -0.8336E-02  0 -0.2222E-02  0  0.6181E-02  0 -0.8357E-02
   (  2, 57, 33)  (  1, 12,  9)  (  2, 10, 34)  (  2, 59, 34)  (  2, 59, 34)
  0  0.1123E-01  0 -0.7551E-02  0 -0.1300E-02  0  0.6634E-03  1  0.4936E-03
   (  2, 59, 34)  (  2, 59, 34)  (  2,  3, 32)  (  2, 20, 52)  (  2, 22, 49)

 MAXIMUM RESIDUAL FOR EACH ITERATION (1 INDICATES THE FIRST INNER ITERATION):

    RESIDUAL       RESIDUAL       RESIDUAL       RESIDUAL       RESIDUAL    
   LAYER,ROW,COL  LAYER,ROW,COL  LAYER,ROW,COL  LAYER,ROW,COL  LAYER,ROW,COL
 ---------------------------------------------------------------------------
  1 -0.8854E-03  0 -0.3781E-03  0 -0.3581E-03  0 -0.1600E-03  0 -0.1410E-03
   (  1, 16,  5)  (  2, 31,  5)  (  2, 31,  5)  (  2, 31,  5)  (  2, 31,  5)
  0 -0.1110E-03  0 -0.6703E-04  0 -0.5456E-04  0  0.3837E-04  0  0.2091E-04
   (  2, 31,  5)  (  2, 14,  5)  (  2, 14,  5)  (  2, 34,  5)  (  2, 34,  5)
  0  0.1387E-04  0 -0.1018E-04  0 -0.6623E-05  0 -0.5326E-05  0  0.4476E-05
   (  2, 17,  4)  (  2, 30,  6)  (  2, 30,  6)  (  2, 30,  6)  (  2, 13,  5)
  0  0.3515E-05  0  0.2130E-05  0 -0.1333E-05  0  0.1650E-05  0  0.1600E-05
   (  2, 34,  4)  (  2, 34,  4)  (  1, 14,  5)  (  2, 30,  6)  (  2, 30,  6)
  0 -0.1623E-05  0 -0.1444E-05  0 -0.1388E-05  0 -0.1048E-05  0 -0.9206E-06
   (  2, 34,  4)  (  2, 34,  4)  (  2, 34,  4)  (  2, 34,  4)  (  1, 16,  3)
  0 -0.5390E-06  1  0.2337E-04  0  0.9441E-05  0 -0.8227E-05  0 -0.6597E-05
   (  1, 24,  4)  (  1, 12,  9)  (  1, 12,  9)  (  2, 12,  9)  (  2, 12,  9)
  0 -0.6062E-05  0 -0.3693E-05  0  0.2670E-05  0  0.2259E-05  1  0.2149E-05
   (  2, 12,  9)  (  2, 12,  9)  (  2, 12,  8)  (  2, 12,  8)  (  2, 12,  8)



 OUTPUT CONTROL FOR STRESS PERIOD    1   TIME STEP    3
    SAVE HEAD FOR ALL LAYERS
    SAVE DRAWDOWN FOR ALL LAYERS
    SAVE BUDGET
    PRINT BUDGET
 UBDSV2 SAVING "   CONSTANT HEAD" ON UNIT   9 AT TIME STEP  3, STRESS PERIOD   1
 UBDSV1 SAVING "FLOW RIGHT FACE " ON UNIT   9 AT TIME STEP  3, STRESS PERIOD   1
 UBDSV1 SAVING "FLOW FRONT FACE " ON UNIT   9 AT TIME STEP  3, STRESS PERIOD   1
 UBDSV1 SAVING "FLOW LOWER FACE " ON UNIT   9 AT TIME STEP  3, STRESS PERIOD   1
 UBDSV4 SAVING "           WELLS" ON UNIT   9 AT TIME STEP  3, STRESS PERIOD   1
 UBDSV4 SAVING "   RIVER LEAKAGE" ON UNIT   9 AT TIME STEP  3, STRESS PERIOD   1
 UBDSV3 SAVING "              ET" ON UNIT   9 AT TIME STEP  3, STRESS PERIOD   1
 UBDSV4 SAVING " HEAD DEP BOUNDS" ON UNIT   9 AT TIME STEP  3, STRESS PERIOD   1
 UBDSV3 SAVING "        RECHARGE" ON UNIT   9 AT TIME STEP  3, STRESS PERIOD   1
 SOLVING FOR ZETA FOR LAYER     1 ZONE     2
     2 CALLS TO PCG ROUTINE FOR TIME STEP   3 IN STRESS PERIOD    1
     3 TOTAL ITERATIONS

 MAXIMUM HEAD CHANGE FOR EACH ITERATION (1 INDICATES THE FIRST INNER ITERATION):

    HEAD CHANGE    HEAD CHANGE    HEAD CHANGE    HEAD CHANGE    HEAD CHANGE 
   LAYER,ROW,COL  LAYER,ROW,COL  LAYER,ROW,COL  LAYER,ROW,COL  LAYER,ROW,COL
 ---------------------------------------------------------------------------
  1  -28.02      0 -0.9152E-06  1  0.6056E-06
   (  1, 31,  6)  (  1, 29,  6)  (  1, 27,  6)

 MAXIMUM RESIDUAL FOR EACH ITERATION (1 INDICATES THE FIRST INNER ITERATION):

    RESIDUAL       RESIDUAL       RESIDUAL       RESIDUAL       RESIDUAL    
   LAYER,ROW,COL  LAYER,ROW,COL  LAYER,ROW,COL  LAYER,ROW,COL  LAYER,ROW,COL
 ---------------------------------------------------------------------------
  1  0.1185E-09  0  0.3895E-17  1  0.1541E-17
   (  1, 29,  6)  (  1, 29,  6)  (  1, 23,  6)


 SOLVING FOR ZETA FOR LAYER     2 ZONE     2
     2 CALLS TO PCG ROUTINE FOR TIME STEP   3 IN STRESS PERIOD    1
     5 TOTAL ITERATIONS

 MAXIMUM HEAD CHANGE FOR EACH ITERATION (1 INDICATES THE FIRST INNER ITERATION):

    HEAD CHANGE    HEAD CHANGE    HEAD CHANGE    HEAD CHANGE    HEAD CHANGE 
   LAYER,ROW,COL  LAYER,ROW,COL  LAYER,ROW,COL  LAYER,ROW,COL  LAYER,ROW,COL
 ---------------------------------------------------------------------------
  1  -14.15      0 -0.7202      0  0.3664E-01  0  0.6854E-03  1  0.4611E-04
   (  1, 34,  5)  (  1, 29,  7)  (  1, 34,  5)  (  1, 31,  6)  (  1, 30,  7)

 MAXIMUM RESIDUAL FOR EACH ITERATION (1 INDICATES THE FIRST INNER ITERATION):

    RESIDUAL       RESIDUAL       RESIDUAL       RESIDUAL       RESIDUAL    
   LAYER,ROW,COL  LAYER,ROW,COL  LAYER,ROW,COL  LAYER,ROW,COL  LAYER,ROW,COL
 ---------------------------------------------------------------------------
  1  0.6476E-04  0  0.4045E-05  0 -0.8497E-07  0 -0.4150E-08  1 -0.2018E-09
   (  1, 29,  7)  (  1, 29,  6)  (  1, 25,  6)  (  1, 30,  7)  (  1, 31,  6)


 UBUDSV SAVING "      ZETASRF  1" ON UNIT170 AT TIME STEP  3, STRESS PERIOD    1


                      VOLUMETRIC SWI ZONE BUDGET FOR ENTIRE MODEL
                     AT END OF TIME STEP    3 IN STRESS PERIOD   1
                                      ZONE     1
  -----------------------------------------------------------------------------------

        CUMULATIVE VOLUMES      L**3       RATES FOR THIS TIME STEP      L**3/T
        ------------------                 ------------------------

              IN:                                      IN:
              ---                                      ---
             BOUNDARIES =    30203288.0000            BOUNDARIES =           0.1596
          CONSTANT HEAD =           0.0000         CONSTANT HEAD =           0.0000
            ZONE CHANGE =    80761192.0000           ZONE CHANGE =       3.3049E-03
       ZONE CHG TIP/TOE =     2623790.7500      ZONE CHG TIP/TOE =       5.0533E-03
            ZONE MIXING =           0.0000           ZONE MIXING =           0.0000

               TOTAL IN =   113588272.0000              TOTAL IN =           0.1680

             OUT:                                     OUT:
             ----                                     ----
             BOUNDARIES =    16539750.0000            BOUNDARIES =           0.1066
          CONSTANT HEAD =           0.0000         CONSTANT HEAD =           0.0000
            ZONE CHANGE =     7464647.0000           ZONE CHANGE =       4.5688E-02
       ZONE CHG TIP/TOE =     2514471.5000      ZONE CHG TIP/TOE =       4.9592E-03
            ZONE MIXING =           0.0000           ZONE MIXING =           0.0000

              TOTAL OUT =    26518868.0000             TOTAL OUT =           0.1572

               IN - OUT =    87069408.0000              IN - OUT =       1.0748E-02

    PERCENT DISCREPANCY =         124.29     PERCENT DISCREPANCY =           6.61



                      VOLUMETRIC SWI ZONE BUDGET FOR ENTIRE MODEL
                     AT END OF TIME STEP    3 IN STRESS PERIOD   1
                                      ZONE     2
  -----------------------------------------------------------------------------------

        CUMULATIVE VOLUMES      L**3       RATES FOR THIS TIME STEP      L**3/T
        ------------------                 ------------------------

              IN:                                      IN:
              ---                                      ---
             BOUNDARIES =           0.0000            BOUNDARIES =           0.0000
          CONSTANT HEAD =           0.0000         CONSTANT HEAD =           0.0000
            ZONE CHANGE =     4898739.0000           ZONE CHANGE =       4.3043E-02
       ZONE CHG TIP/TOE =     2514471.5000      ZONE CHG TIP/TOE =       4.9592E-03
            ZONE MIXING =           0.0000           ZONE MIXING =           0.0000

               TOTAL IN =     7413210.5000              TOTAL IN =       4.8003E-02

             OUT:                                     OUT:
             ----                                     ----
             BOUNDARIES =    13665552.0000            BOUNDARIES =       5.3045E-02
          CONSTANT HEAD =           0.0000         CONSTANT HEAD =           0.0000
            ZONE CHANGE =      520687.4062           ZONE CHANGE =       2.0557E-03
       ZONE CHG TIP/TOE =      888809.5625      ZONE CHG TIP/TOE =       2.4582E-03
            ZONE MIXING =           0.0000           ZONE MIXING =           0.0000

              TOTAL OUT =    15075049.0000             TOTAL OUT =       5.7559E-02

               IN - OUT =    -7661838.5000              IN - OUT =      -9.5563E-03

    PERCENT DISCREPANCY =         -68.14     PERCENT DISCREPANCY =         -18.11


 HEAD WILL BE SAVED ON UNIT   37 AT END OF TIME STEP    3, STRESS PERIOD    1

 DRAWDOWN WILL BE SAVED ON UNIT   38 AT END OF TIME STEP    3, STRESS PERIOD    1
1
  VOLUMETRIC BUDGET FOR ENTIRE MODEL AT END OF TIME STEP    3, STRESS PERIOD   1
  ------------------------------------------------------------------------------

     CUMULATIVE VOLUMES      L**3       RATES FOR THIS TIME STEP      L**3/T
     ------------------                 ------------------------

           IN:                                      IN:
           ---                                      ---
             STORAGE =           0.0000               STORAGE =           0.0000
       CONSTANT HEAD =           0.0000         CONSTANT HEAD =           0.0000
               WELLS =           0.0000                 WELLS =           0.0000
       RIVER LEAKAGE =     6559703.0000         RIVER LEAKAGE =       3.4669E-02
                  ET =           0.0000                    ET =           0.0000
     HEAD DEP BOUNDS =           0.0000       HEAD DEP BOUNDS =           0.0000
            RECHARGE =    25240204.0000              RECHARGE =           0.1334
          SWIADDTOCH =           0.0000            SWIADDTOCH =           0.0000

            TOTAL IN =    31799908.0000              TOTAL IN =           0.1681

          OUT:                                     OUT:
          ----                                     ----
             STORAGE =           0.0000               STORAGE =           0.0000
       CONSTANT HEAD =           0.0000         CONSTANT HEAD =           0.0000
               WELLS =           0.0000                 WELLS =           0.0000
       RIVER LEAKAGE =     1395478.2500         RIVER LEAKAGE =       7.3508E-03
                  ET =    10649368.0000                    ET =       5.5624E-02
     HEAD DEP BOUNDS =    19757074.0000       HEAD DEP BOUNDS =           0.1051
            RECHARGE =           0.0000              RECHARGE =           0.0000
          SWIADDTOCH =           0.0000            SWIADDTOCH =           0.0000

           TOTAL OUT =    31801920.0000             TOTAL OUT =           0.1681

            IN - OUT =       -2012.0000              IN - OUT =      -8.0764E-06

 PERCENT DISCREPANCY =          -0.01     PERCENT DISCREPANCY =          -0.00






         TIME SUMMARY AT END OF TIME STEP    3 IN STRESS PERIOD    1
                    SECONDS     MINUTES      HOURS       DAYS        YEARS
                    -----------------------------------------------------------
   TIME STEP LENGTH 6.30720E+07 1.05120E+06  17520.      730.00      1.9986    
 STRESS PERIOD TIME 1.89216E+08 3.15360E+06  52560.      2190.0      5.9959    
         TOTAL TIME 1.89216E+08 3.15360E+06  52560.      2190.0      5.9959    
1
 
 SOLVING FOR HEAD 
     3 CALLS TO PCG ROUTINE FOR TIME STEP   4 IN STRESS PERIOD    1
    27 TOTAL ITERATIONS

 MAXIMUM HEAD CHANGE FOR EACH ITERATION (1 INDICATES THE FIRST INNER ITERATION):

    HEAD CHANGE    HEAD CHANGE    HEAD CHANGE    HEAD CHANGE    HEAD CHANGE 
   LAYER,ROW,COL  LAYER,ROW,COL  LAYER,ROW,COL  LAYER,ROW,COL  LAYER,ROW,COL
 ---------------------------------------------------------------------------
  1  0.3010      0 -0.1965      0 -0.3044      0   1.267      0  -1.128    
   (  1, 25,  6)  (  1, 35,  8)  (  2, 59, 34)  (  2, 59, 34)  (  2, 59, 34)
  0  0.1016      0  0.5223E-01  0  0.7067E-01  0 -0.3214E-01  0  0.1462E-01
   (  2, 59, 34)  (  2,  5, 31)  (  2,  3, 32)  (  2,  3, 32)  (  2, 57, 37)
  0 -0.1830E-01  0 -0.5314E-01  0  0.5442E-01  0  0.8490E-02  0 -0.3234E-02
   (  2, 57, 37)  (  2, 59, 34)  (  2, 59, 34)  (  2, 57, 37)  (  2, 57, 37)
  0  0.1596E-02  0 -0.2499E-02  0  0.7236E-03  1  0.3195E-02  0  0.1921E-02
   (  2, 19, 52)  (  2, 58, 31)  (  2, 22, 49)  (  2, 58, 31)  (  2, 58, 31)
  0 -0.5768E-02  0  0.1164E-02  0 -0.3759E-02  0  0.5432E-02  0 -0.2309E-02
   (  2, 58, 31)  (  2, 59, 34)  (  2, 59, 34)  (  2, 59, 34)  (  2, 59, 34)
  0  0.8556E-03  1 -0.6200E-03
   (  2,  3, 32)  (  2,  3, 32)

 MAXIMUM RESIDUAL FOR EACH ITERATION (1 INDICATES THE FIRST INNER ITERATION):

    RESIDUAL       RESIDUAL       RESIDUAL       RESIDUAL       RESIDUAL    
   LAYER,ROW,COL  LAYER,ROW,COL  LAYER,ROW,COL  LAYER,ROW,COL  LAYER,ROW,COL
 ---------------------------------------------------------------------------
  1 -0.7544E-03  0 -0.3524E-03  0 -0.3179E-03  0 -0.2683E-03  0  0.1234E-03
   (  1, 14,  4)  (  2, 29,  5)  (  2, 29,  5)  (  2, 29,  5)  (  2, 14,  4)
  0  0.1181E-03  0  0.8218E-04  0  0.4908E-04  0  0.4065E-04  0  0.2064E-04
   (  2, 14,  4)  (  2, 14,  4)  (  1, 24,  6)  (  1, 24,  6)  (  1, 24,  6)
  0  0.1259E-04  0  0.8444E-05  0  0.6658E-05  0 -0.3622E-05  0  0.2854E-05
   (  2, 15,  3)  (  2, 15,  3)  (  2, 15,  3)  (  2, 28,  6)  (  2, 23,  6)
  0  0.2525E-05  0  0.1570E-05  0  0.1350E-05  1  0.9302E-05  0  0.6028E-05
   (  2, 23,  6)  (  2, 23,  6)  (  2, 23,  6)  (  1,  4, 14)  (  1,  4, 14)
  0  0.3891E-05  0  0.3490E-05  0  0.1748E-05  0  0.1506E-05  0 -0.5618E-06
   (  1,  4, 14)  (  1,  4, 14)  (  1,  4, 14)  (  1,  4, 14)  (  2,  4, 14)
  0 -0.3552E-06  1 -0.3119E-06
   (  2,  4, 14)  (  2,  4, 14)



 OUTPUT CONTROL FOR STRESS PERIOD    1   TIME STEP    4
    SAVE HEAD FOR ALL LAYERS
    SAVE DRAWDOWN FOR ALL LAYERS
    SAVE BUDGET
    PRINT BUDGET
 UBDSV2 SAVING "   CONSTANT HEAD" ON UNIT   9 AT TIME STEP  4, STRESS PERIOD   1
 UBDSV1 SAVING "FLOW RIGHT FACE " ON UNIT   9 AT TIME STEP  4, STRESS PERIOD   1
 UBDSV1 SAVING "FLOW FRONT FACE " ON UNIT   9 AT TIME STEP  4, STRESS PERIOD   1
 UBDSV1 SAVING "FLOW LOWER FACE " ON UNIT   9 AT TIME STEP  4, STRESS PERIOD   1
 UBDSV4 SAVING "           WELLS" ON UNIT   9 AT TIME STEP  4, STRESS PERIOD   1
 UBDSV4 SAVING "   RIVER LEAKAGE" ON UNIT   9 AT TIME STEP  4, STRESS PERIOD   1
 UBDSV3 SAVING "              ET" ON UNIT   9 AT TIME STEP  4, STRESS PERIOD   1
 UBDSV4 SAVING " HEAD DEP BOUNDS" ON UNIT   9 AT TIME STEP  4, STRESS PERIOD   1
 UBDSV3 SAVING "        RECHARGE" ON UNIT   9 AT TIME STEP  4, STRESS PERIOD   1
 SOLVING FOR ZETA FOR LAYER     1 ZONE     2
     2 CALLS TO PCG ROUTINE FOR TIME STEP   4 IN STRESS PERIOD    1
     5 TOTAL ITERATIONS

 MAXIMUM HEAD CHANGE FOR EACH ITERATION (1 INDICATES THE FIRST INNER ITERATION):

    HEAD CHANGE    HEAD CHANGE    HEAD CHANGE    HEAD CHANGE    HEAD CHANGE 
   LAYER,ROW,COL  LAYER,ROW,COL  LAYER,ROW,COL  LAYER,ROW,COL  LAYER,ROW,COL
 ---------------------------------------------------------------------------
  1  -27.81      0 -0.5717      0 -0.2427E-01  0 -0.2609E-03  1 -0.2115E-04
   (  1, 31,  5)  (  1, 33,  4)  (  1, 32,  5)  (  1, 34,  4)  (  1, 33,  5)

 MAXIMUM RESIDUAL FOR EACH ITERATION (1 INDICATES THE FIRST INNER ITERATION):

    RESIDUAL       RESIDUAL       RESIDUAL       RESIDUAL       RESIDUAL    
   LAYER,ROW,COL  LAYER,ROW,COL  LAYER,ROW,COL  LAYER,ROW,COL  LAYER,ROW,COL
 ---------------------------------------------------------------------------
  1  0.5895E-04  0  0.2891E-05  0  0.3766E-07  0  0.2390E-08  1  0.1992E-09
   (  1, 33,  4)  (  1, 32,  5)  (  1, 34,  4)  (  1, 33,  5)  (  1, 34,  4)


 SOLVING FOR ZETA FOR LAYER     2 ZONE     2
     2 CALLS TO PCG ROUTINE FOR TIME STEP   4 IN STRESS PERIOD    1
     6 TOTAL ITERATIONS

 MAXIMUM HEAD CHANGE FOR EACH ITERATION (1 INDICATES THE FIRST INNER ITERATION):

    HEAD CHANGE    HEAD CHANGE    HEAD CHANGE    HEAD CHANGE    HEAD CHANGE 
   LAYER,ROW,COL  LAYER,ROW,COL  LAYER,ROW,COL  LAYER,ROW,COL  LAYER,ROW,COL
 ---------------------------------------------------------------------------
  1  -13.27      0 -0.4928      0 -0.3190E-01  0  0.1111E-02  0  0.6021E-04
   (  1, 28,  6)  (  1,  6,  5)  (  1,  7,  4)  (  1, 14,  6)  (  1,  6,  5)
  1 -0.3376E-05
   (  1, 14,  6)

 MAXIMUM RESIDUAL FOR EACH ITERATION (1 INDICATES THE FIRST INNER ITERATION):

    RESIDUAL       RESIDUAL       RESIDUAL       RESIDUAL       RESIDUAL    
   LAYER,ROW,COL  LAYER,ROW,COL  LAYER,ROW,COL  LAYER,ROW,COL  LAYER,ROW,COL
 ---------------------------------------------------------------------------
  1  0.4315E-04  0  0.4121E-05  0 -0.9775E-07  0 -0.5523E-08  0  0.2671E-09
   (  1,  6,  5)  (  1,  7,  4)  (  1,  7,  4)  (  1,  6,  5)  (  1, 14,  6)
  1 -0.1910E-10
   (  1,  6,  5)


 UBUDSV SAVING "      ZETASRF  1" ON UNIT170 AT TIME STEP  4, STRESS PERIOD    1


                      VOLUMETRIC SWI ZONE BUDGET FOR ENTIRE MODEL
                     AT END OF TIME STEP    4 IN STRESS PERIOD   1
                                      ZONE     1
  -----------------------------------------------------------------------------------

        CUMULATIVE VOLUMES      L**3       RATES FOR THIS TIME STEP      L**3/T
        ------------------                 ------------------------

              IN:                                      IN:
              ---                                      ---
             BOUNDARIES =    40271564.0000            BOUNDARIES =           0.1596
          CONSTANT HEAD =           0.0000         CONSTANT HEAD =           0.0000
            ZONE CHANGE =    80886688.0000           ZONE CHANGE =       1.9897E-03
       ZONE CHG TIP/TOE =     3176156.2500      ZONE CHG TIP/TOE =       8.7577E-03
            ZONE MIXING =           0.0000           ZONE MIXING =           0.0000

               TOTAL IN =   124334416.0000              TOTAL IN =           0.1704

             OUT:                                     OUT:
             ----                                     ----
             BOUNDARIES =    24111462.0000            BOUNDARIES =           0.1200
          CONSTANT HEAD =           0.0000         CONSTANT HEAD =           0.0000
            ZONE CHANGE =    10116913.0000           ZONE CHANGE =       4.2051E-02
       ZONE CHG TIP/TOE =     2811442.2500      ZONE CHG TIP/TOE =       4.7084E-03
            ZONE MIXING =           0.0000           ZONE MIXING =           0.0000

              TOTAL OUT =    37039816.0000             TOTAL OUT =           0.1668

               IN - OUT =    87294600.0000              IN - OUT =       3.5704E-03

    PERCENT DISCREPANCY =         108.19     PERCENT DISCREPANCY =           2.12



                      VOLUMETRIC SWI ZONE BUDGET FOR ENTIRE MODEL
                     AT END OF TIME STEP    4 IN STRESS PERIOD   1
                                      ZONE     2
  -----------------------------------------------------------------------------------

        CUMULATIVE VOLUMES      L**3       RATES FOR THIS TIME STEP      L**3/T
        ------------------                 ------------------------

              IN:                                      IN:
              ---                                      ---
             BOUNDARIES =           0.0000            BOUNDARIES =           0.0000
          CONSTANT HEAD =           0.0000         CONSTANT HEAD =           0.0000
            ZONE CHANGE =     7060754.0000           ZONE CHANGE =       3.4279E-02
       ZONE CHG TIP/TOE =     2811442.2500      ZONE CHG TIP/TOE =       4.7084E-03
            ZONE MIXING =           0.0000           ZONE MIXING =           0.0000

               TOTAL IN =     9872196.0000              TOTAL IN =       3.8987E-02

             OUT:                                     OUT:
             ----                                     ----
             BOUNDARIES =    16162680.0000            BOUNDARIES =       3.9592E-02
          CONSTANT HEAD =           0.0000         CONSTANT HEAD =           0.0000
            ZONE CHANGE =      642604.2500           ZONE CHANGE =       1.9330E-03
       ZONE CHG TIP/TOE =      984083.5000      ZONE CHG TIP/TOE =       1.5106E-03
            ZONE MIXING =           0.0000           ZONE MIXING =           0.0000

              TOTAL OUT =    17789368.0000             TOTAL OUT =       4.3035E-02

               IN - OUT =    -7917172.0000              IN - OUT =      -4.0483E-03

    PERCENT DISCREPANCY =         -57.24     PERCENT DISCREPANCY =          -9.87


 HEAD WILL BE SAVED ON UNIT   37 AT END OF TIME STEP    4, STRESS PERIOD    1

 DRAWDOWN WILL BE SAVED ON UNIT   38 AT END OF TIME STEP    4, STRESS PERIOD    1
1
  VOLUMETRIC BUDGET FOR ENTIRE MODEL AT END OF TIME STEP    4, STRESS PERIOD   1
  ------------------------------------------------------------------------------

     CUMULATIVE VOLUMES      L**3       RATES FOR THIS TIME STEP      L**3/T
     ------------------                 ------------------------

           IN:                                      IN:
           ---                                      ---
             STORAGE =           0.0000               STORAGE =           0.0000
       CONSTANT HEAD =           0.0000         CONSTANT HEAD =           0.0000
               WELLS =           0.0000                 WELLS =           0.0000
       RIVER LEAKAGE =     8742809.0000         RIVER LEAKAGE =       3.4613E-02
                  ET =           0.0000                    ET =           0.0000
     HEAD DEP BOUNDS =           0.0000       HEAD DEP BOUNDS =           0.0000
            RECHARGE =    33653604.0000              RECHARGE =           0.1334
          SWIADDTOCH =           0.0000            SWIADDTOCH =           0.0000

            TOTAL IN =    42396412.0000              TOTAL IN =           0.1680

          OUT:                                     OUT:
          ----                                     ----
             STORAGE =           0.0000               STORAGE =           0.0000
       CONSTANT HEAD =           0.0000         CONSTANT HEAD =           0.0000
               WELLS =           0.0000                 WELLS =           0.0000
       RIVER LEAKAGE =     1857936.2500         RIVER LEAKAGE =       7.3322E-03
                  ET =    14188332.0000                    ET =       5.6110E-02
     HEAD DEP BOUNDS =    26352720.0000       HEAD DEP BOUNDS =           0.1046
            RECHARGE =           0.0000              RECHARGE =           0.0000
          SWIADDTOCH =           0.0000            SWIADDTOCH =           0.0000

           TOTAL OUT =    42398988.0000             TOTAL OUT =           0.1680

            IN - OUT =       -2576.0000              IN - OUT =      -8.9109E-06

 PERCENT DISCREPANCY =          -0.01     PERCENT DISCREPANCY =          -0.01






         TIME SUMMARY AT END OF TIME STEP    4 IN STRESS PERIOD    1
                    SECONDS     MINUTES      HOURS       DAYS        YEARS
                    -----------------------------------------------------------
   TIME STEP LENGTH 6.30720E+07 1.05120E+06  17520.      730.00      1.9986    
 STRESS PERIOD TIME 2.52288E+08 4.20480E+06  70080.      2920.0      7.9945    
         TOTAL TIME 2.52288E+08 4.20480E+06  70080.      2920.0      7.9945    
1
 
 SOLVING FOR HEAD 
     3 CALLS TO PCG ROUTINE FOR TIME STEP   5 IN STRESS PERIOD    1
    36 TOTAL ITERATIONS

 MAXIMUM HEAD CHANGE FOR EACH ITERATION (1 INDICATES THE FIRST INNER ITERATION):

    HEAD CHANGE    HEAD CHANGE    HEAD CHANGE    HEAD CHANGE    HEAD CHANGE 
   LAYER,ROW,COL  LAYER,ROW,COL  LAYER,ROW,COL  LAYER,ROW,COL  LAYER,ROW,COL
 ---------------------------------------------------------------------------
  1 -0.3989      0 -0.2683      0  0.8776      0 -0.7342      0  0.1763    
   (  2,  9,  5)  (  2, 59, 34)  (  2, 59, 34)  (  2, 59, 34)  (  2, 59, 34)
  0 -0.5869E-01  0  0.2368E-01  0  0.1916E-01  0 -0.1706E-01  0 -0.9385E-02
   (  2, 59, 34)  (  2,  5, 31)  (  2, 20, 52)  (  2,  5, 31)  (  1, 35,  8)
  0  0.2269E-01  0 -0.6265E-01  0  0.4327E-01  0 -0.5224E-02  0  0.6251E-02
   (  2, 58, 31)  (  2, 59, 34)  (  2, 59, 34)  (  2, 19, 52)  (  2, 58, 31)
  0 -0.1889E-02  0 -0.1228E-01  0  0.6387E-02  0 -0.4021E-02  0  0.1725E-01
   (  2, 58, 31)  (  2, 58, 31)  (  2, 58, 31)  (  2, 58, 31)  (  2, 59, 34)
  0 -0.1959E-01  0  0.3713E-02  0  0.1270E-02  0 -0.1465E-02  0  0.7569E-03
   (  2, 59, 34)  (  2, 59, 34)  (  2,  3, 32)  (  2,  3, 32)  (  2, 57, 37)
  1 -0.8463E-02  0 -0.4038E-02  0 -0.5672E-02  0 -0.5159E-02  0  0.3264E-02
   (  1, 33,  9)  (  2, 19, 52)  (  1, 35,  8)  (  2,  3, 32)  (  2,  3, 32)
  0 -0.5264E-02  0  0.1092E-01  0 -0.7613E-02  0  0.1484E-02  0  0.3969E-03
   (  2, 59, 34)  (  2, 59, 34)  (  2, 59, 34)  (  2, 59, 34)  (  2, 57, 33)
  1  0.5587E-03
   (  2, 19, 52)

 MAXIMUM RESIDUAL FOR EACH ITERATION (1 INDICATES THE FIRST INNER ITERATION):

    RESIDUAL       RESIDUAL       RESIDUAL       RESIDUAL       RESIDUAL    
   LAYER,ROW,COL  LAYER,ROW,COL  LAYER,ROW,COL  LAYER,ROW,COL  LAYER,ROW,COL
 ---------------------------------------------------------------------------
  1 -0.1053E-02  0 -0.3778E-03  0 -0.3508E-03  0 -0.2695E-03  0 -0.1517E-03
   (  2, 31,  4)  (  2, 31,  4)  (  2, 31,  4)  (  2, 31,  4)  (  2, 22,  5)
  0 -0.1364E-03  0 -0.6238E-04  0  0.5128E-04  0  0.4212E-04  0 -0.1646E-04
   (  2, 22,  5)  (  2, 22,  5)  (  2, 32,  4)  (  2, 32,  4)  (  2, 30,  5)
  0  0.1037E-04  0  0.9465E-05  0  0.6060E-05  0  0.4862E-05  0  0.4519E-05
   (  2, 33,  3)  (  2, 33,  3)  (  2, 33,  3)  (  2, 22,  5)  (  1, 32,  4)
  0  0.4567E-05  0  0.4362E-05  0 -0.3556E-05  0 -0.3560E-05  0  0.2898E-05
   (  1, 32,  4)  (  1, 32,  4)  (  2, 30,  6)  (  2, 30,  6)  (  1, 33,  3)
  0  0.2684E-05  0  0.2457E-05  0  0.2077E-05  0  0.1337E-05  0  0.7995E-06
   (  1, 33,  3)  (  1, 33,  3)  (  1, 33,  3)  (  1, 33,  3)  (  1, 33,  3)
  1  0.3623E-04  0  0.3342E-04  0  0.1132E-04  0  0.7416E-05  0 -0.4361E-05
   (  1, 33,  9)  (  1, 33,  9)  (  1, 33,  9)  (  1, 33,  9)  (  2, 33,  9)
  0  0.3176E-05  0  0.2958E-05  0  0.2486E-05  0  0.1995E-05  0 -0.1250E-05
   (  2, 32,  9)  (  2, 32,  9)  (  2, 32,  9)  (  2, 32,  9)  (  1, 33,  9)
  1 -0.1012E-05
   (  1, 33,  9)



 OUTPUT CONTROL FOR STRESS PERIOD    1   TIME STEP    5
    SAVE HEAD FOR ALL LAYERS
    SAVE DRAWDOWN FOR ALL LAYERS
    SAVE BUDGET
    PRINT BUDGET
 UBDSV2 SAVING "   CONSTANT HEAD" ON UNIT   9 AT TIME STEP  5, STRESS PERIOD   1
 UBDSV1 SAVING "FLOW RIGHT FACE " ON UNIT   9 AT TIME STEP  5, STRESS PERIOD   1
 UBDSV1 SAVING "FLOW FRONT FACE " ON UNIT   9 AT TIME STEP  5, STRESS PERIOD   1
 UBDSV1 SAVING "FLOW LOWER FACE " ON UNIT   9 AT TIME STEP  5, STRESS PERIOD   1
 UBDSV4 SAVING "           WELLS" ON UNIT   9 AT TIME STEP  5, STRESS PERIOD   1
 UBDSV4 SAVING "   RIVER LEAKAGE" ON UNIT   9 AT TIME STEP  5, STRESS PERIOD   1
 UBDSV3 SAVING "              ET" ON UNIT   9 AT TIME STEP  5, STRESS PERIOD   1
 UBDSV4 SAVING " HEAD DEP BOUNDS" ON UNIT   9 AT TIME STEP  5, STRESS PERIOD   1
 UBDSV3 SAVING "        RECHARGE" ON UNIT   9 AT TIME STEP  5, STRESS PERIOD   1
 SOLVING FOR ZETA FOR LAYER     1 ZONE     2
     2 CALLS TO PCG ROUTINE FOR TIME STEP   5 IN STRESS PERIOD    1
     6 TOTAL ITERATIONS

 MAXIMUM HEAD CHANGE FOR EACH ITERATION (1 INDICATES THE FIRST INNER ITERATION):

    HEAD CHANGE    HEAD CHANGE    HEAD CHANGE    HEAD CHANGE    HEAD CHANGE 
   LAYER,ROW,COL  LAYER,ROW,COL  LAYER,ROW,COL  LAYER,ROW,COL  LAYER,ROW,COL
 ---------------------------------------------------------------------------
  1  -22.30      0  -1.409      0 -0.8638E-01  0  0.1310E-02  0  0.1108E-03
   (  1, 29,  5)  (  1, 20,  5)  (  1, 21,  4)  (  1, 13,  3)  (  1, 12,  4)
  1  0.2024E-05
   (  1,  7,  3)

 MAXIMUM RESIDUAL FOR EACH ITERATION (1 INDICATES THE FIRST INNER ITERATION):

    RESIDUAL       RESIDUAL       RESIDUAL       RESIDUAL       RESIDUAL    
   LAYER,ROW,COL  LAYER,ROW,COL  LAYER,ROW,COL  LAYER,ROW,COL  LAYER,ROW,COL
 ---------------------------------------------------------------------------
  1  0.1260E-03  0  0.9416E-05  0 -0.1850E-06  0 -0.1103E-07  0 -0.3894E-09
   (  1, 20,  5)  (  1, 21,  4)  (  1, 13,  3)  (  1, 12,  4)  (  1,  7,  3)
  1 -0.2134E-10
   (  1,  6,  4)


 SOLVING FOR ZETA FOR LAYER     2 ZONE     2
     2 CALLS TO PCG ROUTINE FOR TIME STEP   5 IN STRESS PERIOD    1
     5 TOTAL ITERATIONS

 MAXIMUM HEAD CHANGE FOR EACH ITERATION (1 INDICATES THE FIRST INNER ITERATION):

    HEAD CHANGE    HEAD CHANGE    HEAD CHANGE    HEAD CHANGE    HEAD CHANGE 
   LAYER,ROW,COL  LAYER,ROW,COL  LAYER,ROW,COL  LAYER,ROW,COL  LAYER,ROW,COL
 ---------------------------------------------------------------------------
  1   5.558      0  0.3534      0  0.1766E-01  0 -0.3349E-03  1  0.1811E-04
   (  1, 12,  4)  (  1, 12,  5)  (  1, 13,  4)  (  1,  7,  4)  (  1, 14,  6)

 MAXIMUM RESIDUAL FOR EACH ITERATION (1 INDICATES THE FIRST INNER ITERATION):

    RESIDUAL       RESIDUAL       RESIDUAL       RESIDUAL       RESIDUAL    
   LAYER,ROW,COL  LAYER,ROW,COL  LAYER,ROW,COL  LAYER,ROW,COL  LAYER,ROW,COL
 ---------------------------------------------------------------------------
  1 -0.3070E-04  0 -0.1905E-05  0  0.3267E-07  0  0.1270E-08  1  0.1206E-09
   (  1, 12,  5)  (  1, 13,  4)  (  1,  7,  4)  (  1,  6,  5)  (  1,  7,  4)


 UBUDSV SAVING "      ZETASRF  1" ON UNIT170 AT TIME STEP  5, STRESS PERIOD    1


                      VOLUMETRIC SWI ZONE BUDGET FOR ENTIRE MODEL
                     AT END OF TIME STEP    5 IN STRESS PERIOD   1
                                      ZONE     1
  -----------------------------------------------------------------------------------

        CUMULATIVE VOLUMES      L**3       RATES FOR THIS TIME STEP      L**3/T
        ------------------                 ------------------------

              IN:                                      IN:
              ---                                      ---
             BOUNDARIES =    50365800.0000            BOUNDARIES =           0.1600
          CONSTANT HEAD =           0.0000         CONSTANT HEAD =           0.0000
            ZONE CHANGE =    81395520.0000           ZONE CHANGE =       8.0674E-03
       ZONE CHG TIP/TOE =     3298100.7500      ZONE CHG TIP/TOE =       1.9334E-03
            ZONE MIXING =           0.0000           ZONE MIXING =           0.0000

               TOTAL IN =   135059424.0000              TOTAL IN =           0.1700

             OUT:                                     OUT:
             ----                                     ----
             BOUNDARIES =    32590810.0000            BOUNDARIES =           0.1344
          CONSTANT HEAD =           0.0000         CONSTANT HEAD =           0.0000
            ZONE CHANGE =    11778053.0000           ZONE CHANGE =       2.6337E-02
       ZONE CHG TIP/TOE =     2938969.2500      ZONE CHG TIP/TOE =       2.0219E-03
            ZONE MIXING =           0.0000           ZONE MIXING =           0.0000

              TOTAL OUT =    47307832.0000             TOTAL OUT =           0.1628

               IN - OUT =    87751592.0000              IN - OUT =       7.2456E-03

    PERCENT DISCREPANCY =          96.24     PERCENT DISCREPANCY =           4.35



                      VOLUMETRIC SWI ZONE BUDGET FOR ENTIRE MODEL
                     AT END OF TIME STEP    5 IN STRESS PERIOD   1
                                      ZONE     2
  -----------------------------------------------------------------------------------

        CUMULATIVE VOLUMES      L**3       RATES FOR THIS TIME STEP      L**3/T
        ------------------                 ------------------------

              IN:                                      IN:
              ---                                      ---
             BOUNDARIES =           0.0000            BOUNDARIES =           0.0000
          CONSTANT HEAD =           0.0000         CONSTANT HEAD =           0.0000
            ZONE CHANGE =     8680074.0000           ZONE CHANGE =       2.5674E-02
       ZONE CHG TIP/TOE =     2938969.2500      ZONE CHG TIP/TOE =       2.0219E-03
            ZONE MIXING =           0.0000           ZONE MIXING =           0.0000

               TOTAL IN =    11619043.0000              TOTAL IN =       2.7696E-02

             OUT:                                     OUT:
             ----                                     ----
             BOUNDARIES =    17777946.0000            BOUNDARIES =       2.5610E-02
          CONSTANT HEAD =           0.0000         CONSTANT HEAD =           0.0000
            ZONE CHANGE =      998851.8750           ZONE CHANGE =       5.6483E-03
       ZONE CHG TIP/TOE =     1064208.5000      ZONE CHG TIP/TOE =       1.2704E-03
            ZONE MIXING =           0.0000           ZONE MIXING =           0.0000

              TOTAL OUT =    19841006.0000             TOTAL OUT =       3.2529E-02

               IN - OUT =    -8221963.0000              IN - OUT =      -4.8324E-03

    PERCENT DISCREPANCY =         -52.27     PERCENT DISCREPANCY =         -16.05


 HEAD WILL BE SAVED ON UNIT   37 AT END OF TIME STEP    5, STRESS PERIOD    1

 DRAWDOWN WILL BE SAVED ON UNIT   38 AT END OF TIME STEP    5, STRESS PERIOD    1
1
  VOLUMETRIC BUDGET FOR ENTIRE MODEL AT END OF TIME STEP    5, STRESS PERIOD   1
  ------------------------------------------------------------------------------

     CUMULATIVE VOLUMES      L**3       RATES FOR THIS TIME STEP      L**3/T
     ------------------                 ------------------------

           IN:                                      IN:
           ---                                      ---
             STORAGE =           0.0000               STORAGE =           0.0000
       CONSTANT HEAD =           0.0000         CONSTANT HEAD =           0.0000
               WELLS =           0.0000                 WELLS =           0.0000
       RIVER LEAKAGE =    10937362.0000         RIVER LEAKAGE =       3.4794E-02
                  ET =           0.0000                    ET =           0.0000
     HEAD DEP BOUNDS =           0.0000       HEAD DEP BOUNDS =           0.0000
            RECHARGE =    42067004.0000              RECHARGE =           0.1334
          SWIADDTOCH =           0.0000            SWIADDTOCH =           0.0000

            TOTAL IN =    53004368.0000              TOTAL IN =           0.1682

          OUT:                                     OUT:
          ----                                     ----
             STORAGE =           0.0000               STORAGE =           0.0000
       CONSTANT HEAD =           0.0000         CONSTANT HEAD =           0.0000
               WELLS =           0.0000                 WELLS =           0.0000
       RIVER LEAKAGE =     2307168.0000         RIVER LEAKAGE =       7.1225E-03
                  ET =    17574528.0000                    ET =       5.3688E-02
     HEAD DEP BOUNDS =    33125626.0000       HEAD DEP BOUNDS =           0.1074
            RECHARGE =           0.0000              RECHARGE =           0.0000
          SWIADDTOCH =           0.0000            SWIADDTOCH =           0.0000

           TOTAL OUT =    53007320.0000             TOTAL OUT =           0.1682

            IN - OUT =       -2952.0000              IN - OUT =      -6.0201E-06

 PERCENT DISCREPANCY =          -0.01     PERCENT DISCREPANCY =          -0.00






         TIME SUMMARY AT END OF TIME STEP    5 IN STRESS PERIOD    1
                    SECONDS     MINUTES      HOURS       DAYS        YEARS
                    -----------------------------------------------------------
   TIME STEP LENGTH 6.30720E+07 1.05120E+06  17520.      730.00      1.9986    
 STRESS PERIOD TIME 3.15360E+08 5.25600E+06  87600.      3650.0      9.9932    
         TOTAL TIME 3.15360E+08 5.25600E+06  87600.      3650.0      9.9932    
1
 
 SOLVING FOR HEAD 
     2 CALLS TO PCG ROUTINE FOR TIME STEP   6 IN STRESS PERIOD    1
    20 TOTAL ITERATIONS

 MAXIMUM HEAD CHANGE FOR EACH ITERATION (1 INDICATES THE FIRST INNER ITERATION):

    HEAD CHANGE    HEAD CHANGE    HEAD CHANGE    HEAD CHANGE    HEAD CHANGE 
   LAYER,ROW,COL  LAYER,ROW,COL  LAYER,ROW,COL  LAYER,ROW,COL  LAYER,ROW,COL
 ---------------------------------------------------------------------------
  1  0.2616      0  0.3034      0 -0.2702      0  0.3689      0 -0.7460    
   (  1, 29,  5)  (  2, 19, 52)  (  2, 19, 52)  (  2, 59, 34)  (  2, 59, 34)
  0  0.4366      0  0.4135E-01  0 -0.3814E-01  0  0.3730E-01  0 -0.1357E-01
   (  2, 59, 34)  (  2, 22, 49)  (  2,  3, 32)  (  2,  3, 32)  (  2,  3, 32)
  0  0.8669E-02  0  0.7039E-02  0 -0.1046E-01  0  0.3000E-01  0 -0.2852E-01
   (  2,  5, 31)  (  2, 59, 34)  (  2, 59, 34)  (  2, 59, 34)  (  2, 59, 34)
  0  0.6150E-02  0 -0.7174E-02  0  0.2100E-02  0 -0.7498E-03  1  0.6953E-03
   (  2, 58, 31)  (  2, 58, 31)  (  2, 58, 31)  (  2, 22, 49)  (  2, 22, 49)

 MAXIMUM RESIDUAL FOR EACH ITERATION (1 INDICATES THE FIRST INNER ITERATION):

    RESIDUAL       RESIDUAL       RESIDUAL       RESIDUAL       RESIDUAL    
   LAYER,ROW,COL  LAYER,ROW,COL  LAYER,ROW,COL  LAYER,ROW,COL  LAYER,ROW,COL
 ---------------------------------------------------------------------------
  1 -0.7073E-03  0 -0.3051E-03  0  0.1824E-03  0  0.1463E-03  0  0.1239E-03
   (  2, 28,  4)  (  2, 29,  4)  (  2, 22,  4)  (  2, 34,  4)  (  2, 34,  4)
  0  0.1086E-03  0  0.8887E-04  0  0.5843E-04  0  0.4245E-04  0  0.2346E-04
   (  2, 34,  4)  (  2, 34,  4)  (  2, 34,  4)  (  2, 34,  4)  (  2, 23,  3)
  0  0.1683E-04  0  0.1102E-04  0  0.9386E-05  0  0.5228E-05  0  0.4465E-05
   (  2, 23,  3)  (  2, 23,  3)  (  2, 23,  3)  (  2, 23,  3)  (  2, 23,  3)
  0  0.2124E-05  0  0.1303E-05  0 -0.6747E-06  0 -0.6999E-06  1  0.1666E-05
   (  2, 21,  5)  (  2, 21,  5)  (  2, 32,  4)  (  1, 22,  5)  (  1, 31,  6)



 OUTPUT CONTROL FOR STRESS PERIOD    1   TIME STEP    6
    SAVE HEAD FOR ALL LAYERS
    SAVE DRAWDOWN FOR ALL LAYERS
    SAVE BUDGET
    PRINT BUDGET
 UBDSV2 SAVING "   CONSTANT HEAD" ON UNIT   9 AT TIME STEP  6, STRESS PERIOD   1
 UBDSV1 SAVING "FLOW RIGHT FACE " ON UNIT   9 AT TIME STEP  6, STRESS PERIOD   1
 UBDSV1 SAVING "FLOW FRONT FACE " ON UNIT   9 AT TIME STEP  6, STRESS PERIOD   1
 UBDSV1 SAVING "FLOW LOWER FACE " ON UNIT   9 AT TIME STEP  6, STRESS PERIOD   1
 UBDSV4 SAVING "           WELLS" ON UNIT   9 AT TIME STEP  6, STRESS PERIOD   1
 UBDSV4 SAVING "   RIVER LEAKAGE" ON UNIT   9 AT TIME STEP  6, STRESS PERIOD   1
 UBDSV3 SAVING "              ET" ON UNIT   9 AT TIME STEP  6, STRESS PERIOD   1
 UBDSV4 SAVING " HEAD DEP BOUNDS" ON UNIT   9 AT TIME STEP  6, STRESS PERIOD   1
 UBDSV3 SAVING "        RECHARGE" ON UNIT   9 AT TIME STEP  6, STRESS PERIOD   1
 SOLVING FOR ZETA FOR LAYER     1 ZONE     2
     2 CALLS TO PCG ROUTINE FOR TIME STEP   6 IN STRESS PERIOD    1
     5 TOTAL ITERATIONS

 MAXIMUM HEAD CHANGE FOR EACH ITERATION (1 INDICATES THE FIRST INNER ITERATION):

    HEAD CHANGE    HEAD CHANGE    HEAD CHANGE    HEAD CHANGE    HEAD CHANGE 
   LAYER,ROW,COL  LAYER,ROW,COL  LAYER,ROW,COL  LAYER,ROW,COL  LAYER,ROW,COL
 ---------------------------------------------------------------------------
  1  -13.67      0 -0.4114      0 -0.3156E-01  0  0.7951E-03  1  0.3378E-04
   (  1, 19,  4)  (  1,  6,  4)  (  1, 13,  3)  (  1, 32,  4)  (  1, 31,  5)

 MAXIMUM RESIDUAL FOR EACH ITERATION (1 INDICATES THE FIRST INNER ITERATION):

    RESIDUAL       RESIDUAL       RESIDUAL       RESIDUAL       RESIDUAL    
   LAYER,ROW,COL  LAYER,ROW,COL  LAYER,ROW,COL  LAYER,ROW,COL  LAYER,ROW,COL
 ---------------------------------------------------------------------------
  1  0.3358E-04  0  0.3318E-05  0 -0.8348E-07  0 -0.3447E-08  1 -0.3026E-09
   (  1,  6,  4)  (  1,  7,  3)  (  1, 32,  4)  (  1, 13,  3)  (  1, 32,  4)


 SOLVING FOR ZETA FOR LAYER     2 ZONE     2
     2 CALLS TO PCG ROUTINE FOR TIME STEP   6 IN STRESS PERIOD    1
     5 TOTAL ITERATIONS

 MAXIMUM HEAD CHANGE FOR EACH ITERATION (1 INDICATES THE FIRST INNER ITERATION):

    HEAD CHANGE    HEAD CHANGE    HEAD CHANGE    HEAD CHANGE    HEAD CHANGE 
   LAYER,ROW,COL  LAYER,ROW,COL  LAYER,ROW,COL  LAYER,ROW,COL  LAYER,ROW,COL
 ---------------------------------------------------------------------------
  1  -5.769      0 -0.2980      0 -0.1824E-01  0 -0.5930E-03  1 -0.3391E-04
   (  1, 31,  5)  (  1, 31,  6)  (  1, 32,  5)  (  1, 11,  5)  (  1, 12,  4)

 MAXIMUM RESIDUAL FOR EACH ITERATION (1 INDICATES THE FIRST INNER ITERATION):

    RESIDUAL       RESIDUAL       RESIDUAL       RESIDUAL       RESIDUAL    
   LAYER,ROW,COL  LAYER,ROW,COL  LAYER,ROW,COL  LAYER,ROW,COL  LAYER,ROW,COL
 ---------------------------------------------------------------------------
  1  0.2820E-04  0  0.2289E-05  0  0.5536E-07  0  0.4954E-08  1 -0.2843E-09
   (  1, 31,  6)  (  1, 32,  5)  (  1, 11,  5)  (  1, 12,  4)  (  1, 32,  5)


 UBUDSV SAVING "      ZETASRF  1" ON UNIT170 AT TIME STEP  6, STRESS PERIOD    1


                      VOLUMETRIC SWI ZONE BUDGET FOR ENTIRE MODEL
                     AT END OF TIME STEP    6 IN STRESS PERIOD   1
                                      ZONE     1
  -----------------------------------------------------------------------------------

        CUMULATIVE VOLUMES      L**3       RATES FOR THIS TIME STEP      L**3/T
        ------------------                 ------------------------

              IN:                                      IN:
              ---                                      ---
             BOUNDARIES =    60463368.0000            BOUNDARIES =           0.1601
          CONSTANT HEAD =           0.0000         CONSTANT HEAD =           0.0000
            ZONE CHANGE =    81490832.0000           ZONE CHANGE =       1.5112E-03
       ZONE CHG TIP/TOE =     3326180.2500      ZONE CHG TIP/TOE =       4.4520E-04
            ZONE MIXING =           0.0000           ZONE MIXING =           0.0000

               TOTAL IN =   145280384.0000              TOTAL IN =           0.1621

             OUT:                                     OUT:
             ----                                     ----
             BOUNDARIES =    41362364.0000            BOUNDARIES =           0.1391
          CONSTANT HEAD =           0.0000         CONSTANT HEAD =           0.0000
            ZONE CHANGE =    13185385.0000           ZONE CHANGE =       2.2313E-02
       ZONE CHG TIP/TOE =     2967657.7500      ZONE CHG TIP/TOE =       4.5485E-04
            ZONE MIXING =           0.0000           ZONE MIXING =           0.0000

              TOTAL OUT =    57515408.0000             TOTAL OUT =           0.1618

               IN - OUT =    87764976.0000              IN - OUT =       2.1222E-04

    PERCENT DISCREPANCY =          86.56     PERCENT DISCREPANCY =           0.13



                      VOLUMETRIC SWI ZONE BUDGET FOR ENTIRE MODEL
                     AT END OF TIME STEP    6 IN STRESS PERIOD   1
                                      ZONE     2
  -----------------------------------------------------------------------------------

        CUMULATIVE VOLUMES      L**3       RATES FOR THIS TIME STEP      L**3/T
        ------------------                 ------------------------

              IN:                                      IN:
              ---                                      ---
             BOUNDARIES =           0.0000            BOUNDARIES =           0.0000
          CONSTANT HEAD =           0.0000         CONSTANT HEAD =           0.0000
            ZONE CHANGE =    10073599.0000           ZONE CHANGE =       2.2094E-02
       ZONE CHG TIP/TOE =     2967657.7500      ZONE CHG TIP/TOE =       4.5485E-04
            ZONE MIXING =           0.0000           ZONE MIXING =           0.0000

               TOTAL IN =    13041257.0000              TOTAL IN =       2.2549E-02

             OUT:                                     OUT:
             ----                                     ----
             BOUNDARIES =    19104992.0000            BOUNDARIES =       2.1040E-02
          CONSTANT HEAD =           0.0000         CONSTANT HEAD =           0.0000
            ZONE CHANGE =     1076610.6250           ZONE CHANGE =       1.2329E-03
       ZONE CHG TIP/TOE =     1081137.6250      ZONE CHG TIP/TOE =       2.6841E-04
            ZONE MIXING =           0.0000           ZONE MIXING =           0.0000

              TOTAL OUT =    21262740.0000             TOTAL OUT =       2.2541E-02

               IN - OUT =    -8221483.0000              IN - OUT =       7.6164E-06

    PERCENT DISCREPANCY =         -47.93     PERCENT DISCREPANCY =           0.03


 HEAD WILL BE SAVED ON UNIT   37 AT END OF TIME STEP    6, STRESS PERIOD    1

 DRAWDOWN WILL BE SAVED ON UNIT   38 AT END OF TIME STEP    6, STRESS PERIOD    1
1
  VOLUMETRIC BUDGET FOR ENTIRE MODEL AT END OF TIME STEP    6, STRESS PERIOD   1
  ------------------------------------------------------------------------------

     CUMULATIVE VOLUMES      L**3       RATES FOR THIS TIME STEP      L**3/T
     ------------------                 ------------------------

           IN:                                      IN:
           ---                                      ---
             STORAGE =           0.0000               STORAGE =           0.0000
       CONSTANT HEAD =           0.0000         CONSTANT HEAD =           0.0000
               WELLS =           0.0000                 WELLS =           0.0000
       RIVER LEAKAGE =    13131385.0000         RIVER LEAKAGE =       3.4786E-02
                  ET =           0.0000                    ET =           0.0000
     HEAD DEP BOUNDS =           0.0000       HEAD DEP BOUNDS =           0.0000
            RECHARGE =    50480404.0000              RECHARGE =           0.1334
          SWIADDTOCH =           0.0000            SWIADDTOCH =           0.0000

            TOTAL IN =    63611788.0000              TOTAL IN =           0.1682

          OUT:                                     OUT:
          ----                                     ----
             STORAGE =           0.0000               STORAGE =           0.0000
       CONSTANT HEAD =           0.0000         CONSTANT HEAD =           0.0000
               WELLS =           0.0000                 WELLS =           0.0000
       RIVER LEAKAGE =     2755283.2500         RIVER LEAKAGE =       7.1048E-03
                  ET =    20954940.0000                    ET =       5.3596E-02
     HEAD DEP BOUNDS =    39905552.0000       HEAD DEP BOUNDS =           0.1075
            RECHARGE =           0.0000              RECHARGE =           0.0000
          SWIADDTOCH =           0.0000            SWIADDTOCH =           0.0000

           TOTAL OUT =    63615776.0000             TOTAL OUT =           0.1682

            IN - OUT =       -3988.0000              IN - OUT =      -1.6347E-05

 PERCENT DISCREPANCY =          -0.01     PERCENT DISCREPANCY =          -0.01






         TIME SUMMARY AT END OF TIME STEP    6 IN STRESS PERIOD    1
                    SECONDS     MINUTES      HOURS       DAYS        YEARS
                    -----------------------------------------------------------
   TIME STEP LENGTH 6.30720E+07 1.05120E+06  17520.      730.00      1.9986    
 STRESS PERIOD TIME 3.78432E+08 6.30720E+06 1.05120E+05  4380.0      11.992    
         TOTAL TIME 3.78432E+08 6.30720E+06 1.05120E+05  4380.0      11.992    
1
 
 SOLVING FOR HEAD 
     2 CALLS TO PCG ROUTINE FOR TIME STEP   7 IN STRESS PERIOD    1
    17 TOTAL ITERATIONS

 MAXIMUM HEAD CHANGE FOR EACH ITERATION (1 INDICATES THE FIRST INNER ITERATION):

    HEAD CHANGE    HEAD CHANGE    HEAD CHANGE    HEAD CHANGE    HEAD CHANGE 
   LAYER,ROW,COL  LAYER,ROW,COL  LAYER,ROW,COL  LAYER,ROW,COL  LAYER,ROW,COL
 ---------------------------------------------------------------------------
  1 -0.1531      0  0.1703      0 -0.1726      0  0.3599      0 -0.2594    
   (  2, 18,  3)  (  2, 22, 49)  (  2, 59, 34)  (  2, 59, 34)  (  2, 59, 34)
  0  0.3461E-01  0  0.7798E-01  0 -0.7447E-01  0  0.2336E-01  0  0.7864E-02
   (  2, 59, 34)  (  2, 58, 31)  (  2, 58, 31)  (  2, 58, 31)  (  2,  3, 32)
  0 -0.7357E-02  0  0.3067E-01  0 -0.3031E-01  0  0.1604E-02  0 -0.1515E-02
   (  2,  3, 32)  (  2, 59, 34)  (  2, 59, 34)  (  2, 59, 34)  (  2, 19, 52)
  0  0.7683E-03  1 -0.4973E-03
   (  2, 19, 52)  (  2, 19, 52)

 MAXIMUM RESIDUAL FOR EACH ITERATION (1 INDICATES THE FIRST INNER ITERATION):

    RESIDUAL       RESIDUAL       RESIDUAL       RESIDUAL       RESIDUAL    
   LAYER,ROW,COL  LAYER,ROW,COL  LAYER,ROW,COL  LAYER,ROW,COL  LAYER,ROW,COL
 ---------------------------------------------------------------------------
  1 -0.4933E-03  0  0.2946E-03  0 -0.1142E-03  0 -0.1092E-03  0 -0.6748E-04
   (  1, 29,  5)  (  2, 22, 49)  (  1, 15,  4)  (  1, 15,  4)  (  1, 14,  5)
  0 -0.6479E-04  0 -0.4255E-04  0 -0.2830E-04  0 -0.1718E-04  0 -0.1102E-04
   (  1, 14,  5)  (  1, 14,  5)  (  1, 14,  5)  (  1, 14,  5)  (  1, 14,  5)
  0 -0.7699E-05  0  0.4253E-05  0  0.3409E-05  0  0.2284E-05  0  0.1540E-05
   (  1, 14,  5)  (  1, 32,  4)  (  1, 32,  4)  (  1, 32,  4)  (  1, 32,  4)
  0  0.1295E-05  1  0.1915E-05
   (  1, 32,  4)  (  1, 14,  4)



 OUTPUT CONTROL FOR STRESS PERIOD    1   TIME STEP    7
    SAVE HEAD FOR ALL LAYERS
    SAVE DRAWDOWN FOR ALL LAYERS
    SAVE BUDGET
    PRINT BUDGET
 UBDSV2 SAVING "   CONSTANT HEAD" ON UNIT   9 AT TIME STEP  7, STRESS PERIOD   1
 UBDSV1 SAVING "FLOW RIGHT FACE " ON UNIT   9 AT TIME STEP  7, STRESS PERIOD   1
 UBDSV1 SAVING "FLOW FRONT FACE " ON UNIT   9 AT TIME STEP  7, STRESS PERIOD   1
 UBDSV1 SAVING "FLOW LOWER FACE " ON UNIT   9 AT TIME STEP  7, STRESS PERIOD   1
 UBDSV4 SAVING "           WELLS" ON UNIT   9 AT TIME STEP  7, STRESS PERIOD   1
 UBDSV4 SAVING "   RIVER LEAKAGE" ON UNIT   9 AT TIME STEP  7, STRESS PERIOD   1
 UBDSV3 SAVING "              ET" ON UNIT   9 AT TIME STEP  7, STRESS PERIOD   1
 UBDSV4 SAVING " HEAD DEP BOUNDS" ON UNIT   9 AT TIME STEP  7, STRESS PERIOD   1
 UBDSV3 SAVING "        RECHARGE" ON UNIT   9 AT TIME STEP  7, STRESS PERIOD   1
 SOLVING FOR ZETA FOR LAYER     1 ZONE     2
     2 CALLS TO PCG ROUTINE FOR TIME STEP   7 IN STRESS PERIOD    1
     5 TOTAL ITERATIONS

 MAXIMUM HEAD CHANGE FOR EACH ITERATION (1 INDICATES THE FIRST INNER ITERATION):

    HEAD CHANGE    HEAD CHANGE    HEAD CHANGE    HEAD CHANGE    HEAD CHANGE 
   LAYER,ROW,COL  LAYER,ROW,COL  LAYER,ROW,COL  LAYER,ROW,COL  LAYER,ROW,COL
 ---------------------------------------------------------------------------
  1  -7.061      0 -0.7168      0 -0.4093E-01  0  0.8737E-03  1  0.4653E-04
   (  1, 23,  4)  (  1, 30,  5)  (  1, 31,  4)  (  1,  6,  4)  (  1, 30,  5)

 MAXIMUM RESIDUAL FOR EACH ITERATION (1 INDICATES THE FIRST INNER ITERATION):

    RESIDUAL       RESIDUAL       RESIDUAL       RESIDUAL       RESIDUAL    
   LAYER,ROW,COL  LAYER,ROW,COL  LAYER,ROW,COL  LAYER,ROW,COL  LAYER,ROW,COL
 ---------------------------------------------------------------------------
  1  0.7091E-04  0  0.5832E-05  0 -0.7494E-07  0 -0.6620E-08  1 -0.3557E-09
   (  1, 30,  5)  (  1, 31,  4)  (  1,  6,  4)  (  1,  7,  3)  (  1, 31,  4)


 SOLVING FOR ZETA FOR LAYER     2 ZONE     2
     2 CALLS TO PCG ROUTINE FOR TIME STEP   7 IN STRESS PERIOD    1
     5 TOTAL ITERATIONS

 MAXIMUM HEAD CHANGE FOR EACH ITERATION (1 INDICATES THE FIRST INNER ITERATION):

    HEAD CHANGE    HEAD CHANGE    HEAD CHANGE    HEAD CHANGE    HEAD CHANGE 
   LAYER,ROW,COL  LAYER,ROW,COL  LAYER,ROW,COL  LAYER,ROW,COL  LAYER,ROW,COL
 ---------------------------------------------------------------------------
  1  -6.051      0 -0.2179      0 -0.1045E-01  0  0.1967E-03  1 -0.8643E-05
   (  1, 28,  6)  (  1, 31,  6)  (  1, 32,  5)  (  1, 32,  5)  (  1, 11,  5)

 MAXIMUM RESIDUAL FOR EACH ITERATION (1 INDICATES THE FIRST INNER ITERATION):

    RESIDUAL       RESIDUAL       RESIDUAL       RESIDUAL       RESIDUAL    
   LAYER,ROW,COL  LAYER,ROW,COL  LAYER,ROW,COL  LAYER,ROW,COL  LAYER,ROW,COL
 ---------------------------------------------------------------------------
  1  0.1839E-04  0  0.1215E-05  0 -0.2074E-07  0  0.9437E-09  1 -0.6234E-10
   (  1, 31,  6)  (  1, 32,  5)  (  1, 32,  5)  (  1, 11,  4)  (  1, 32,  5)


 UBUDSV SAVING "      ZETASRF  1" ON UNIT170 AT TIME STEP  7, STRESS PERIOD    1


                      VOLUMETRIC SWI ZONE BUDGET FOR ENTIRE MODEL
                     AT END OF TIME STEP    7 IN STRESS PERIOD   1
                                      ZONE     1
  -----------------------------------------------------------------------------------

        CUMULATIVE VOLUMES      L**3       RATES FOR THIS TIME STEP      L**3/T
        ------------------                 ------------------------

              IN:                                      IN:
              ---                                      ---
             BOUNDARIES =    70557296.0000            BOUNDARIES =           0.1600
          CONSTANT HEAD =           0.0000         CONSTANT HEAD =           0.0000
            ZONE CHANGE =    81586768.0000           ZONE CHANGE =       1.5211E-03
       ZONE CHG TIP/TOE =     3421358.2500      ZONE CHG TIP/TOE =       1.5090E-03
            ZONE MIXING =           0.0000           ZONE MIXING =           0.0000

               TOTAL IN =   155565424.0000              TOTAL IN =           0.1631

             OUT:                                     OUT:
             ----                                     ----
             BOUNDARIES =    50368856.0000            BOUNDARIES =           0.1428
          CONSTANT HEAD =           0.0000         CONSTANT HEAD =           0.0000
            ZONE CHANGE =    14289305.0000           ZONE CHANGE =       1.7503E-02
       ZONE CHG TIP/TOE =     3070865.2500      ZONE CHG TIP/TOE =       1.6363E-03
            ZONE MIXING =           0.0000           ZONE MIXING =           0.0000

              TOTAL OUT =    67729024.0000             TOTAL OUT =           0.1619

               IN - OUT =    87836400.0000              IN - OUT =       1.1325E-03

    PERCENT DISCREPANCY =          78.67     PERCENT DISCREPANCY =           0.70



                      VOLUMETRIC SWI ZONE BUDGET FOR ENTIRE MODEL
                     AT END OF TIME STEP    7 IN STRESS PERIOD   1
                                      ZONE     2
  -----------------------------------------------------------------------------------

        CUMULATIVE VOLUMES      L**3       RATES FOR THIS TIME STEP      L**3/T
        ------------------                 ------------------------

              IN:                                      IN:
              ---                                      ---
             BOUNDARIES =           0.0000            BOUNDARIES =           0.0000
          CONSTANT HEAD =           0.0000         CONSTANT HEAD =           0.0000
            ZONE CHANGE =    11160902.0000           ZONE CHANGE =       1.7239E-02
       ZONE CHG TIP/TOE =     3070865.2500      ZONE CHG TIP/TOE =       1.6363E-03
            ZONE MIXING =           0.0000           ZONE MIXING =           0.0000

               TOTAL IN =    14231767.0000              TOTAL IN =       1.8875E-02

             OUT:                                     OUT:
             ----                                     ----
             BOUNDARIES =    20192926.0000            BOUNDARIES =       1.7249E-02
          CONSTANT HEAD =           0.0000         CONSTANT HEAD =           0.0000
            ZONE CHANGE =     1166693.6250           ZONE CHANGE =       1.4283E-03
       ZONE CHG TIP/TOE =     1162182.7500      ZONE CHG TIP/TOE =       1.2850E-03
            ZONE MIXING =           0.0000           ZONE MIXING =           0.0000

              TOTAL OUT =    22521802.0000             TOTAL OUT =       1.9962E-02

               IN - OUT =    -8290035.0000              IN - OUT =      -1.0869E-03

    PERCENT DISCREPANCY =         -45.11     PERCENT DISCREPANCY =          -5.60


 HEAD WILL BE SAVED ON UNIT   37 AT END OF TIME STEP    7, STRESS PERIOD    1

 DRAWDOWN WILL BE SAVED ON UNIT   38 AT END OF TIME STEP    7, STRESS PERIOD    1
1
  VOLUMETRIC BUDGET FOR ENTIRE MODEL AT END OF TIME STEP    7, STRESS PERIOD   1
  ------------------------------------------------------------------------------

     CUMULATIVE VOLUMES      L**3       RATES FOR THIS TIME STEP      L**3/T
     ------------------                 ------------------------

           IN:                                      IN:
           ---                                      ---
             STORAGE =           0.0000               STORAGE =           0.0000
       CONSTANT HEAD =           0.0000         CONSTANT HEAD =           0.0000
               WELLS =           0.0000                 WELLS =           0.0000
       RIVER LEAKAGE =    15323364.0000         RIVER LEAKAGE =       3.4754E-02
                  ET =           0.0000                    ET =           0.0000
     HEAD DEP BOUNDS =           0.0000       HEAD DEP BOUNDS =           0.0000
            RECHARGE =    58893804.0000              RECHARGE =           0.1334
          SWIADDTOCH =           0.0000            SWIADDTOCH =           0.0000

            TOTAL IN =    74217168.0000              TOTAL IN =           0.1681

          OUT:                                     OUT:
          ----                                     ----
             STORAGE =           0.0000               STORAGE =           0.0000
       CONSTANT HEAD =           0.0000         CONSTANT HEAD =           0.0000
               WELLS =           0.0000                 WELLS =           0.0000
       RIVER LEAKAGE =     3205243.7500         RIVER LEAKAGE =       7.1341E-03
                  ET =    24331686.0000                    ET =       5.3538E-02
     HEAD DEP BOUNDS =    46684720.0000       HEAD DEP BOUNDS =           0.1075
            RECHARGE =           0.0000              RECHARGE =           0.0000
          SWIADDTOCH =           0.0000            SWIADDTOCH =           0.0000

           TOTAL OUT =    74221648.0000             TOTAL OUT =           0.1682

            IN - OUT =       -4480.0000              IN - OUT =      -7.8529E-06

 PERCENT DISCREPANCY =          -0.01     PERCENT DISCREPANCY =          -0.00






         TIME SUMMARY AT END OF TIME STEP    7 IN STRESS PERIOD    1
                    SECONDS     MINUTES      HOURS       DAYS        YEARS
                    -----------------------------------------------------------
   TIME STEP LENGTH 6.30720E+07 1.05120E+06  17520.      730.00      1.9986    
 STRESS PERIOD TIME 4.41504E+08 7.35840E+06 1.22640E+05  5110.0      13.990    
         TOTAL TIME 4.41504E+08 7.35840E+06 1.22640E+05  5110.0      13.990    
1
 
 SOLVING FOR HEAD 
     2 CALLS TO PCG ROUTINE FOR TIME STEP   8 IN STRESS PERIOD    1
    20 TOTAL ITERATIONS

 MAXIMUM HEAD CHANGE FOR EACH ITERATION (1 INDICATES THE FIRST INNER ITERATION):

    HEAD CHANGE    HEAD CHANGE    HEAD CHANGE    HEAD CHANGE    HEAD CHANGE 
   LAYER,ROW,COL  LAYER,ROW,COL  LAYER,ROW,COL  LAYER,ROW,COL  LAYER,ROW,COL
 ---------------------------------------------------------------------------
  1  0.1548      0 -0.1165      0  0.8955E-01  0 -0.1543      0  0.3664    
   (  1, 31,  4)  (  2, 19, 52)  (  2, 19, 52)  (  2, 59, 34)  (  2, 59, 34)
  0 -0.2739      0  0.5483E-01  0 -0.1110E-01  0  0.1521E-01  0 -0.1403E-01
   (  2, 59, 34)  (  2, 59, 34)  (  2,  3, 32)  (  2,  3, 32)  (  2,  3, 32)
  0 -0.7218E-02  0  0.6357E-02  0  0.3759E-02  0 -0.1582E-01  0  0.1855E-01
   (  2, 19, 52)  (  2, 19, 52)  (  2, 21, 50)  (  2, 59, 34)  (  2, 59, 34)
  0 -0.4888E-02  0  0.5093E-02  0 -0.2860E-02  0 -0.5336E-03  1  0.7805E-03
   (  2, 58, 31)  (  2, 58, 31)  (  2, 58, 31)  (  2, 58, 31)  (  2, 58, 31)

 MAXIMUM RESIDUAL FOR EACH ITERATION (1 INDICATES THE FIRST INNER ITERATION):

    RESIDUAL       RESIDUAL       RESIDUAL       RESIDUAL       RESIDUAL    
   LAYER,ROW,COL  LAYER,ROW,COL  LAYER,ROW,COL  LAYER,ROW,COL  LAYER,ROW,COL
 ---------------------------------------------------------------------------
  1 -0.5270E-03  0 -0.4680E-03  0 -0.1354E-03  0 -0.8337E-04  0 -0.6913E-04
   (  1, 31,  4)  (  1, 31,  4)  (  1, 31,  4)  (  1, 31,  4)  (  1, 31,  4)
  0 -0.6152E-04  0 -0.5242E-04  0 -0.3263E-04  0 -0.2446E-04  0 -0.1810E-04
   (  2, 23,  3)  (  2, 30,  4)  (  2, 30,  4)  (  2, 30,  4)  (  2, 30,  4)
  0 -0.1026E-04  0 -0.8486E-05  0 -0.7208E-05  0 -0.3949E-05  0 -0.3555E-05
   (  1, 32,  3)  (  1, 32,  3)  (  1, 30,  5)  (  1, 30,  5)  (  1, 30,  5)
  0 -0.1559E-05  0  0.7766E-06  0  0.7386E-06  0  0.6953E-06  1  0.1971E-05
   (  1, 30,  5)  (  1,  6,  3)  (  1,  6,  3)  (  1,  6,  3)  (  1, 29,  6)



 OUTPUT CONTROL FOR STRESS PERIOD    1   TIME STEP    8
    SAVE HEAD FOR ALL LAYERS
    SAVE DRAWDOWN FOR ALL LAYERS
    SAVE BUDGET
    PRINT BUDGET
 UBDSV2 SAVING "   CONSTANT HEAD" ON UNIT   9 AT TIME STEP  8, STRESS PERIOD   1
 UBDSV1 SAVING "FLOW RIGHT FACE " ON UNIT   9 AT TIME STEP  8, STRESS PERIOD   1
 UBDSV1 SAVING "FLOW FRONT FACE " ON UNIT   9 AT TIME STEP  8, STRESS PERIOD   1
 UBDSV1 SAVING "FLOW LOWER FACE " ON UNIT   9 AT TIME STEP  8, STRESS PERIOD   1
 UBDSV4 SAVING "           WELLS" ON UNIT   9 AT TIME STEP  8, STRESS PERIOD   1
 UBDSV4 SAVING "   RIVER LEAKAGE" ON UNIT   9 AT TIME STEP  8, STRESS PERIOD   1
 UBDSV3 SAVING "              ET" ON UNIT   9 AT TIME STEP  8, STRESS PERIOD   1
 UBDSV4 SAVING " HEAD DEP BOUNDS" ON UNIT   9 AT TIME STEP  8, STRESS PERIOD   1
 UBDSV3 SAVING "        RECHARGE" ON UNIT   9 AT TIME STEP  8, STRESS PERIOD   1
 SOLVING FOR ZETA FOR LAYER     1 ZONE     2
     2 CALLS TO PCG ROUTINE FOR TIME STEP   8 IN STRESS PERIOD    1
     5 TOTAL ITERATIONS

 MAXIMUM HEAD CHANGE FOR EACH ITERATION (1 INDICATES THE FIRST INNER ITERATION):

    HEAD CHANGE    HEAD CHANGE    HEAD CHANGE    HEAD CHANGE    HEAD CHANGE 
   LAYER,ROW,COL  LAYER,ROW,COL  LAYER,ROW,COL  LAYER,ROW,COL  LAYER,ROW,COL
 ---------------------------------------------------------------------------
  1  -7.409      0 -0.5215      0  0.2262E-01  0  0.7488E-03  1 -0.4432E-04
   (  1, 31,  4)  (  1, 30,  5)  (  1, 14,  4)  (  1,  6,  4)  (  1, 28,  4)

 MAXIMUM RESIDUAL FOR EACH ITERATION (1 INDICATES THE FIRST INNER ITERATION):

    RESIDUAL       RESIDUAL       RESIDUAL       RESIDUAL       RESIDUAL    
   LAYER,ROW,COL  LAYER,ROW,COL  LAYER,ROW,COL  LAYER,ROW,COL  LAYER,ROW,COL
 ---------------------------------------------------------------------------
  1  0.4626E-04  0 -0.2417E-05  0 -0.6831E-07  0 -0.5149E-08  1  0.3336E-09
   (  1, 30,  5)  (  1, 23,  4)  (  1, 30,  5)  (  1, 31,  4)  (  1, 26,  5)


 SOLVING FOR ZETA FOR LAYER     2 ZONE     2
     2 CALLS TO PCG ROUTINE FOR TIME STEP   8 IN STRESS PERIOD    1
     5 TOTAL ITERATIONS

 MAXIMUM HEAD CHANGE FOR EACH ITERATION (1 INDICATES THE FIRST INNER ITERATION):

    HEAD CHANGE    HEAD CHANGE    HEAD CHANGE    HEAD CHANGE    HEAD CHANGE 
   LAYER,ROW,COL  LAYER,ROW,COL  LAYER,ROW,COL  LAYER,ROW,COL  LAYER,ROW,COL
 ---------------------------------------------------------------------------
  1  -4.519      0 -0.4434      0 -0.3146E-01  0  0.6112E-03  1  0.3528E-04
   (  1, 26,  6)  (  1, 29,  6)  (  1, 30,  5)  (  1, 11,  5)  (  1, 12,  4)

 MAXIMUM RESIDUAL FOR EACH ITERATION (1 INDICATES THE FIRST INNER ITERATION):

    RESIDUAL       RESIDUAL       RESIDUAL       RESIDUAL       RESIDUAL    
   LAYER,ROW,COL  LAYER,ROW,COL  LAYER,ROW,COL  LAYER,ROW,COL  LAYER,ROW,COL
 ---------------------------------------------------------------------------
  1  0.4431E-04  0  0.4261E-05  0  0.5936E-07  0 -0.4533E-08  1 -0.2431E-09
   (  1, 29,  6)  (  1, 30,  5)  (  1, 31,  5)  (  1, 12,  4)  (  1, 11,  5)


 UBUDSV SAVING "      ZETASRF  1" ON UNIT170 AT TIME STEP  8, STRESS PERIOD    1


                      VOLUMETRIC SWI ZONE BUDGET FOR ENTIRE MODEL
                     AT END OF TIME STEP    8 IN STRESS PERIOD   1
                                      ZONE     1
  -----------------------------------------------------------------------------------

        CUMULATIVE VOLUMES      L**3       RATES FOR THIS TIME STEP      L**3/T
        ------------------                 ------------------------

              IN:                                      IN:
              ---                                      ---
             BOUNDARIES =    80657408.0000            BOUNDARIES =           0.1601
          CONSTANT HEAD =           0.0000         CONSTANT HEAD =           0.0000
            ZONE CHANGE =    81717896.0000           ZONE CHANGE =       2.0791E-03
       ZONE CHG TIP/TOE =     3477138.7500      ZONE CHG TIP/TOE =       8.8439E-04
            ZONE MIXING =           0.0000           ZONE MIXING =           0.0000

               TOTAL IN =   165852448.0000              TOTAL IN =           0.1631

             OUT:                                     OUT:
             ----                                     ----
             BOUNDARIES =    59617380.0000            BOUNDARIES =           0.1466
          CONSTANT HEAD =           0.0000         CONSTANT HEAD =           0.0000
            ZONE CHANGE =    15254215.0000           ZONE CHANGE =       1.5299E-02
       ZONE CHG TIP/TOE =     3123952.5000      ZONE CHG TIP/TOE =       8.4169E-04
            ZONE MIXING =           0.0000           ZONE MIXING =           0.0000

              TOTAL OUT =    77995552.0000             TOTAL OUT =           0.1628

               IN - OUT =    87856896.0000              IN - OUT =       3.2507E-04

    PERCENT DISCREPANCY =          72.06     PERCENT DISCREPANCY =           0.20



                      VOLUMETRIC SWI ZONE BUDGET FOR ENTIRE MODEL
                     AT END OF TIME STEP    8 IN STRESS PERIOD   1
                                      ZONE     2
  -----------------------------------------------------------------------------------

        CUMULATIVE VOLUMES      L**3       RATES FOR THIS TIME STEP      L**3/T
        ------------------                 ------------------------

              IN:                                      IN:
              ---                                      ---
             BOUNDARIES =           0.0000            BOUNDARIES =           0.0000
          CONSTANT HEAD =           0.0000         CONSTANT HEAD =           0.0000
            ZONE CHANGE =    12108517.0000           ZONE CHANGE =       1.5024E-02
       ZONE CHG TIP/TOE =     3123952.5000      ZONE CHG TIP/TOE =       8.4169E-04
            ZONE MIXING =           0.0000           ZONE MIXING =           0.0000

               TOTAL IN =    15232470.0000              TOTAL IN =       1.5866E-02

             OUT:                                     OUT:
             ----                                     ----
             BOUNDARIES =    21045364.0000            BOUNDARIES =       1.3515E-02
          CONSTANT HEAD =           0.0000         CONSTANT HEAD =           0.0000
            ZONE CHANGE =     1277389.1250           ZONE CHANGE =       1.7551E-03
       ZONE CHG TIP/TOE =     1202412.1250      ZONE CHG TIP/TOE =       6.3783E-04
            ZONE MIXING =           0.0000           ZONE MIXING =           0.0000

              TOTAL OUT =    23525166.0000             TOTAL OUT =       1.5908E-02

               IN - OUT =    -8292696.0000              IN - OUT =      -4.2189E-05

    PERCENT DISCREPANCY =         -42.79     PERCENT DISCREPANCY =          -0.27


 HEAD WILL BE SAVED ON UNIT   37 AT END OF TIME STEP    8, STRESS PERIOD    1

 DRAWDOWN WILL BE SAVED ON UNIT   38 AT END OF TIME STEP    8, STRESS PERIOD    1
1
  VOLUMETRIC BUDGET FOR ENTIRE MODEL AT END OF TIME STEP    8, STRESS PERIOD   1
  ------------------------------------------------------------------------------

     CUMULATIVE VOLUMES      L**3       RATES FOR THIS TIME STEP      L**3/T
     ------------------                 ------------------------

           IN:                                      IN:
           ---                                      ---
             STORAGE =           0.0000               STORAGE =           0.0000
       CONSTANT HEAD =           0.0000         CONSTANT HEAD =           0.0000
               WELLS =           0.0000                 WELLS =           0.0000
       RIVER LEAKAGE =    17517916.0000         RIVER LEAKAGE =       3.4794E-02
                  ET =           0.0000                    ET =           0.0000
     HEAD DEP BOUNDS =           0.0000       HEAD DEP BOUNDS =           0.0000
            RECHARGE =    67307208.0000              RECHARGE =           0.1334
          SWIADDTOCH =           0.0000            SWIADDTOCH =           0.0000

            TOTAL IN =    84825120.0000              TOTAL IN =           0.1682

          OUT:                                     OUT:
          ----                                     ----
             STORAGE =           0.0000               STORAGE =           0.0000
       CONSTANT HEAD =           0.0000         CONSTANT HEAD =           0.0000
               WELLS =           0.0000                 WELLS =           0.0000
       RIVER LEAKAGE =     3650414.7500         RIVER LEAKAGE =       7.0581E-03
                  ET =    27691940.0000                    ET =       5.3276E-02
     HEAD DEP BOUNDS =    53488100.0000       HEAD DEP BOUNDS =           0.1079
            RECHARGE =           0.0000              RECHARGE =           0.0000
          SWIADDTOCH =           0.0000            SWIADDTOCH =           0.0000

           TOTAL OUT =    84830456.0000             TOTAL OUT =           0.1682

            IN - OUT =       -5336.0000              IN - OUT =      -1.3471E-05

 PERCENT DISCREPANCY =          -0.01     PERCENT DISCREPANCY =          -0.01






         TIME SUMMARY AT END OF TIME STEP    8 IN STRESS PERIOD    1
                    SECONDS     MINUTES      HOURS       DAYS        YEARS
                    -----------------------------------------------------------
   TIME STEP LENGTH 6.30720E+07 1.05120E+06  17520.      730.00      1.9986    
 STRESS PERIOD TIME 5.04576E+08 8.40960E+06 1.40160E+05  5840.0      15.989    
         TOTAL TIME 5.04576E+08 8.40960E+06 1.40160E+05  5840.0      15.989    
1
 
 SOLVING FOR HEAD 
     3 CALLS TO PCG ROUTINE FOR TIME STEP   9 IN STRESS PERIOD    1
    27 TOTAL ITERATIONS

 MAXIMUM HEAD CHANGE FOR EACH ITERATION (1 INDICATES THE FIRST INNER ITERATION):

    HEAD CHANGE    HEAD CHANGE    HEAD CHANGE    HEAD CHANGE    HEAD CHANGE 
   LAYER,ROW,COL  LAYER,ROW,COL  LAYER,ROW,COL  LAYER,ROW,COL  LAYER,ROW,COL
 ---------------------------------------------------------------------------
  1  0.1197      0 -0.1120      0  0.1136      0 -0.3340      0  0.2519    
   (  2, 24,  5)  (  2, 22, 49)  (  2, 59, 34)  (  2, 59, 34)  (  2, 59, 34)
  0 -0.1744E-01  0  0.1830E-01  0 -0.1738E-01  0 -0.1321E-01  0  0.1333E-01
   (  2, 59, 34)  (  2, 58, 31)  (  2, 58, 31)  (  2,  3, 32)  (  2, 58, 31)
  0  0.3878E-02  0  0.1805E-01  0 -0.2110E-01  0  0.4342E-02  0  0.1155E-02
   (  2, 58, 31)  (  2, 59, 34)  (  2, 59, 34)  (  2, 59, 34)  (  2, 21, 50)
  0  0.1278E-02  0 -0.1218E-02  0 -0.1018E-02  0  0.1597E-02  0 -0.1674E-02
   (  2, 19, 52)  (  2, 19, 52)  (  2, 58, 31)  (  2, 58, 31)  (  2, 58, 31)
  0 -0.3070E-02  0  0.4018E-02  0 -0.1070E-02  0 -0.6919E-03  1  0.1538E-02
   (  2, 59, 34)  (  2, 59, 34)  (  2, 59, 34)  (  2, 57, 37)  (  2, 57, 37)
  0 -0.3567E-03  1  0.3360E-03
   (  2, 19, 52)  (  2, 19, 52)

 MAXIMUM RESIDUAL FOR EACH ITERATION (1 INDICATES THE FIRST INNER ITERATION):

    RESIDUAL       RESIDUAL       RESIDUAL       RESIDUAL       RESIDUAL    
   LAYER,ROW,COL  LAYER,ROW,COL  LAYER,ROW,COL  LAYER,ROW,COL  LAYER,ROW,COL
 ---------------------------------------------------------------------------
  1 -0.4331E-03  0 -0.3204E-03  0 -0.1250E-03  0 -0.1171E-03  0 -0.6784E-04
   (  1,  6,  3)  (  1,  6,  3)  (  1,  6,  3)  (  1,  6,  3)  (  1,  6,  3)
  0 -0.6455E-04  0 -0.3437E-04  0 -0.2690E-04  0 -0.1714E-04  0 -0.1014E-04
   (  1,  6,  3)  (  1,  6,  3)  (  1,  6,  3)  (  1,  6,  3)  (  1,  6,  3)
  0 -0.5627E-05  0  0.3868E-05  0  0.3508E-05  0  0.2129E-05  0  0.1273E-05
   (  1,  6,  3)  (  1, 28,  4)  (  1, 28,  4)  (  1, 28,  4)  (  1, 28,  4)
  0  0.8555E-06  0  0.9811E-06  0  0.1034E-05  0  0.8896E-06  0 -0.7769E-06
   (  1,  6,  3)  (  1,  6,  3)  (  1,  6,  3)  (  1,  6,  3)  (  1, 28,  4)
  0 -0.7360E-06  0  0.7337E-06  0  0.6609E-06  0  0.4286E-06  1  0.2708E-05
   (  1, 28,  4)  (  1,  7,  2)  (  1,  7,  2)  (  1,  7,  2)  (  1, 30, 12)
  0  0.2408E-05  1  0.2354E-05
   (  1, 30, 12)  (  1, 30, 12)



 OUTPUT CONTROL FOR STRESS PERIOD    1   TIME STEP    9
    SAVE HEAD FOR ALL LAYERS
    SAVE DRAWDOWN FOR ALL LAYERS
    SAVE BUDGET
    PRINT BUDGET
 UBDSV2 SAVING "   CONSTANT HEAD" ON UNIT   9 AT TIME STEP  9, STRESS PERIOD   1
 UBDSV1 SAVING "FLOW RIGHT FACE " ON UNIT   9 AT TIME STEP  9, STRESS PERIOD   1
 UBDSV1 SAVING "FLOW FRONT FACE " ON UNIT   9 AT TIME STEP  9, STRESS PERIOD   1
 UBDSV1 SAVING "FLOW LOWER FACE " ON UNIT   9 AT TIME STEP  9, STRESS PERIOD   1
 UBDSV4 SAVING "           WELLS" ON UNIT   9 AT TIME STEP  9, STRESS PERIOD   1
 UBDSV4 SAVING "   RIVER LEAKAGE" ON UNIT   9 AT TIME STEP  9, STRESS PERIOD   1
 UBDSV3 SAVING "              ET" ON UNIT   9 AT TIME STEP  9, STRESS PERIOD   1
 UBDSV4 SAVING " HEAD DEP BOUNDS" ON UNIT   9 AT TIME STEP  9, STRESS PERIOD   1
 UBDSV3 SAVING "        RECHARGE" ON UNIT   9 AT TIME STEP  9, STRESS PERIOD   1
 SOLVING FOR ZETA FOR LAYER     1 ZONE     2
     2 CALLS TO PCG ROUTINE FOR TIME STEP   9 IN STRESS PERIOD    1
     6 TOTAL ITERATIONS

 MAXIMUM HEAD CHANGE FOR EACH ITERATION (1 INDICATES THE FIRST INNER ITERATION):

    HEAD CHANGE    HEAD CHANGE    HEAD CHANGE    HEAD CHANGE    HEAD CHANGE 
   LAYER,ROW,COL  LAYER,ROW,COL  LAYER,ROW,COL  LAYER,ROW,COL  LAYER,ROW,COL
 ---------------------------------------------------------------------------
  1  -6.992      0 -0.4178      0  0.1949E-01  0  0.1037E-02  0  0.5069E-04
   (  1,  7,  3)  (  1, 13,  4)  (  1,  7,  3)  (  1, 13,  4)  (  1, 14,  3)
  1 -0.9127E-06
   (  1, 13,  4)

 MAXIMUM RESIDUAL FOR EACH ITERATION (1 INDICATES THE FIRST INNER ITERATION):

    RESIDUAL       RESIDUAL       RESIDUAL       RESIDUAL       RESIDUAL    
   LAYER,ROW,COL  LAYER,ROW,COL  LAYER,ROW,COL  LAYER,ROW,COL  LAYER,ROW,COL
 ---------------------------------------------------------------------------
  1  0.3482E-04  0  0.1634E-05  0 -0.8586E-07  0 -0.5282E-08  0  0.7956E-10
   (  1, 13,  4)  (  1, 29,  4)  (  1, 13,  4)  (  1, 14,  3)  (  1, 13,  4)
  1  0.5256E-11
   (  1, 28,  4)


 SOLVING FOR ZETA FOR LAYER     2 ZONE     2
     2 CALLS TO PCG ROUTINE FOR TIME STEP   9 IN STRESS PERIOD    1
     5 TOTAL ITERATIONS

 MAXIMUM HEAD CHANGE FOR EACH ITERATION (1 INDICATES THE FIRST INNER ITERATION):

    HEAD CHANGE    HEAD CHANGE    HEAD CHANGE    HEAD CHANGE    HEAD CHANGE 
   LAYER,ROW,COL  LAYER,ROW,COL  LAYER,ROW,COL  LAYER,ROW,COL  LAYER,ROW,COL
 ---------------------------------------------------------------------------
  1  -4.497      0 -0.4172      0 -0.2277E-01  0 -0.6848E-03  1  0.3712E-04
   (  1, 23,  5)  (  1, 27,  6)  (  1, 28,  5)  (  1, 27,  6)  (  1, 24,  5)

 MAXIMUM RESIDUAL FOR EACH ITERATION (1 INDICATES THE FIRST INNER ITERATION):

    RESIDUAL       RESIDUAL       RESIDUAL       RESIDUAL       RESIDUAL    
   LAYER,ROW,COL  LAYER,ROW,COL  LAYER,ROW,COL  LAYER,ROW,COL  LAYER,ROW,COL
 ---------------------------------------------------------------------------
  1  0.3991E-04  0  0.3038E-05  0 -0.6841E-07  0 -0.4615E-08  1  0.4335E-09
   (  1, 27,  6)  (  1, 28,  5)  (  1, 30,  6)  (  1, 24,  5)  (  1, 27,  6)


 UBUDSV SAVING "      ZETASRF  1" ON UNIT170 AT TIME STEP  9, STRESS PERIOD    1


                      VOLUMETRIC SWI ZONE BUDGET FOR ENTIRE MODEL
                     AT END OF TIME STEP    9 IN STRESS PERIOD   1
                                      ZONE     1
  -----------------------------------------------------------------------------------

        CUMULATIVE VOLUMES      L**3       RATES FOR THIS TIME STEP      L**3/T
        ------------------                 ------------------------

              IN:                                      IN:
              ---                                      ---
             BOUNDARIES =    90766824.0000            BOUNDARIES =           0.1603
          CONSTANT HEAD =           0.0000         CONSTANT HEAD =           0.0000
            ZONE CHANGE =    81794968.0000           ZONE CHANGE =       1.2220E-03
       ZONE CHG TIP/TOE =     3525408.7500      ZONE CHG TIP/TOE =       7.6532E-04
            ZONE MIXING =           0.0000           ZONE MIXING =           0.0000

               TOTAL IN =   176087200.0000              TOTAL IN =           0.1623

             OUT:                                     OUT:
             ----                                     ----
             BOUNDARIES =    68965280.0000            BOUNDARIES =           0.1482
          CONSTANT HEAD =           0.0000         CONSTANT HEAD =           0.0000
            ZONE CHANGE =    16069381.0000           ZONE CHANGE =       1.2924E-02
       ZONE CHG TIP/TOE =     3179277.2500      ZONE CHG TIP/TOE =       8.7717E-04
            ZONE MIXING =           0.0000           ZONE MIXING =           0.0000

              TOTAL OUT =    88213936.0000             TOTAL OUT =           0.1620

               IN - OUT =    87873264.0000              IN - OUT =       2.5962E-04

    PERCENT DISCREPANCY =          66.49     PERCENT DISCREPANCY =           0.16



                      VOLUMETRIC SWI ZONE BUDGET FOR ENTIRE MODEL
                     AT END OF TIME STEP    9 IN STRESS PERIOD   1
                                      ZONE     2
  -----------------------------------------------------------------------------------

        CUMULATIVE VOLUMES      L**3       RATES FOR THIS TIME STEP      L**3/T
        ------------------                 ------------------------

              IN:                                      IN:
              ---                                      ---
             BOUNDARIES =           0.0000            BOUNDARIES =           0.0000
          CONSTANT HEAD =           0.0000         CONSTANT HEAD =           0.0000
            ZONE CHANGE =    12916062.0000           ZONE CHANGE =       1.2804E-02
       ZONE CHG TIP/TOE =     3179277.2500      ZONE CHG TIP/TOE =       8.7717E-04
            ZONE MIXING =           0.0000           ZONE MIXING =           0.0000

               TOTAL IN =    16095339.0000              TOTAL IN =       1.3681E-02

             OUT:                                     OUT:
             ----                                     ----
             BOUNDARIES =    21807010.0000            BOUNDARIES =       1.2076E-02
          CONSTANT HEAD =           0.0000         CONSTANT HEAD =           0.0000
            ZONE CHANGE =     1330680.0000           ZONE CHANGE =       8.4492E-04
       ZONE CHG TIP/TOE =     1243428.3750      ZONE CHG TIP/TOE =       6.5031E-04
            ZONE MIXING =           0.0000           ZONE MIXING =           0.0000

              TOTAL OUT =    24381118.0000             TOTAL OUT =       1.3571E-02

               IN - OUT =    -8285779.0000              IN - OUT =       1.0968E-04

    PERCENT DISCREPANCY =         -40.94     PERCENT DISCREPANCY =           0.80


 HEAD WILL BE SAVED ON UNIT   37 AT END OF TIME STEP    9, STRESS PERIOD    1

 DRAWDOWN WILL BE SAVED ON UNIT   38 AT END OF TIME STEP    9, STRESS PERIOD    1
1
  VOLUMETRIC BUDGET FOR ENTIRE MODEL AT END OF TIME STEP    9, STRESS PERIOD   1
  ------------------------------------------------------------------------------

     CUMULATIVE VOLUMES      L**3       RATES FOR THIS TIME STEP      L**3/T
     ------------------                 ------------------------

           IN:                                      IN:
           ---                                      ---
             STORAGE =           0.0000               STORAGE =           0.0000
       CONSTANT HEAD =           0.0000         CONSTANT HEAD =           0.0000
               WELLS =           0.0000                 WELLS =           0.0000
       RIVER LEAKAGE =    19716076.0000         RIVER LEAKAGE =       3.4852E-02
                  ET =           0.0000                    ET =           0.0000
     HEAD DEP BOUNDS =           0.0000       HEAD DEP BOUNDS =           0.0000
            RECHARGE =    75720608.0000              RECHARGE =           0.1334
          SWIADDTOCH =           0.0000            SWIADDTOCH =           0.0000

            TOTAL IN =    95436688.0000              TOTAL IN =           0.1682

          OUT:                                     OUT:
          ----                                     ----
             STORAGE =           0.0000               STORAGE =           0.0000
       CONSTANT HEAD =           0.0000         CONSTANT HEAD =           0.0000
               WELLS =           0.0000                 WELLS =           0.0000
       RIVER LEAKAGE =     4091160.7500         RIVER LEAKAGE =       6.9880E-03
                  ET =    31032898.0000                    ET =       5.2971E-02
     HEAD DEP BOUNDS =    60318080.0000       HEAD DEP BOUNDS =           0.1083
            RECHARGE =           0.0000              RECHARGE =           0.0000
          SWIADDTOCH =           0.0000            SWIADDTOCH =           0.0000

           TOTAL OUT =    95442144.0000             TOTAL OUT =           0.1682

            IN - OUT =       -5456.0000              IN - OUT =      -1.9670E-06

 PERCENT DISCREPANCY =          -0.01     PERCENT DISCREPANCY =          -0.00






         TIME SUMMARY AT END OF TIME STEP    9 IN STRESS PERIOD    1
                    SECONDS     MINUTES      HOURS       DAYS        YEARS
                    -----------------------------------------------------------
   TIME STEP LENGTH 6.30720E+07 1.05120E+06  17520.      730.00      1.9986    
 STRESS PERIOD TIME 5.67648E+08 9.46080E+06 1.57680E+05  6570.0      17.988    
         TOTAL TIME 5.67648E+08 9.46080E+06 1.57680E+05  6570.0      17.988    
1
 
 SOLVING FOR HEAD 
     3 CALLS TO PCG ROUTINE FOR TIME STEP  10 IN STRESS PERIOD    1
    32 TOTAL ITERATIONS

 MAXIMUM HEAD CHANGE FOR EACH ITERATION (1 INDICATES THE FIRST INNER ITERATION):

    HEAD CHANGE    HEAD CHANGE    HEAD CHANGE    HEAD CHANGE    HEAD CHANGE 
   LAYER,ROW,COL  LAYER,ROW,COL  LAYER,ROW,COL  LAYER,ROW,COL  LAYER,ROW,COL
 ---------------------------------------------------------------------------
  1  0.1513      0  0.1065      0 -0.9859E-01  0 -0.3796      0  0.3759    
   (  1, 34,  3)  (  2, 19, 52)  (  2, 19, 52)  (  2, 59, 34)  (  2, 59, 34)
  0 -0.3261E-01  0  0.2582E-01  0  0.1072E-01  0 -0.1301E-01  0 -0.1280E-01
   (  2,  3, 32)  (  2,  3, 32)  (  2,  5, 31)  (  2, 57, 37)  (  2, 57, 37)
  0  0.9514E-02  0 -0.5045E-02  0  0.1472E-01  0 -0.1922E-01  0  0.6516E-02
   (  2, 57, 37)  (  2, 59, 34)  (  2, 59, 34)  (  2, 59, 34)  (  2, 59, 34)
  0 -0.3576E-02  0  0.3145E-02  0 -0.2169E-02  0  0.2239E-02  0 -0.3889E-02
   (  2, 57, 37)  (  2, 57, 37)  (  2, 58, 31)  (  2, 58, 31)  (  2, 59, 34)
  0  0.4349E-02  0 -0.1862E-02  0  0.7321E-03  1 -0.1059E-02  0  0.7109E-02
   (  2, 59, 34)  (  2, 59, 34)  (  2, 59, 34)  (  2, 59, 34)  (  2, 59, 34)
  0 -0.8264E-02  0  0.3661E-02  0  0.1783E-02  0  0.1684E-02  0 -0.1022E-02
   (  2, 59, 34)  (  2, 59, 34)  (  2, 57, 37)  (  2, 58, 31)  (  2, 57, 37)
  0  0.3562E-03  1  0.2204E-03
   (  2, 57, 37)  (  2,  3, 32)

 MAXIMUM RESIDUAL FOR EACH ITERATION (1 INDICATES THE FIRST INNER ITERATION):

    RESIDUAL       RESIDUAL       RESIDUAL       RESIDUAL       RESIDUAL    
   LAYER,ROW,COL  LAYER,ROW,COL  LAYER,ROW,COL  LAYER,ROW,COL  LAYER,ROW,COL
 ---------------------------------------------------------------------------
  1  0.4863E-03  0  0.4138E-03  0  0.1122E-03  0  0.7580E-04  0 -0.5826E-04
   (  2, 34,  3)  (  2, 34,  3)  (  2, 34,  3)  (  2, 34,  3)  (  1, 33,  3)
  0 -0.4178E-04  0  0.2767E-04  0  0.2256E-04  0  0.1887E-04  0  0.1412E-04
   (  1, 33,  3)  (  2, 33,  4)  (  2, 33,  4)  (  2, 33,  4)  (  2, 33,  4)
  0  0.7039E-05  0  0.6316E-05  0  0.4475E-05  0  0.4044E-05  0  0.2258E-05
   (  2, 33,  4)  (  2, 33,  4)  (  1, 34,  4)  (  1, 34,  4)  (  1, 34,  4)
  0  0.9230E-06  0  0.7035E-06  0 -0.5060E-06  0 -0.6286E-06  0 -0.6748E-06
   (  1, 34,  4)  (  2, 32,  5)  (  2, 34,  3)  (  1, 34,  4)  (  1, 34,  4)
  0 -0.7843E-06  0 -0.7861E-06  0 -0.6974E-06  1  0.1142E-04  0  0.7115E-05
   (  1, 34,  4)  (  1, 34,  4)  (  1, 34,  4)  (  1, 29,  9)  (  1, 29,  9)
  0  0.3880E-05  0  0.3572E-05  0  0.1963E-05  0 -0.1022E-05  0 -0.5565E-06
   (  1, 29,  9)  (  1, 29,  9)  (  1, 29,  9)  (  2, 29,  9)  (  2, 29,  9)
  0  0.4210E-06  1  0.3908E-06
   (  2, 29,  8)  (  2, 29,  8)



 OUTPUT CONTROL FOR STRESS PERIOD    1   TIME STEP   10
    SAVE HEAD FOR ALL LAYERS
    SAVE DRAWDOWN FOR ALL LAYERS
    SAVE BUDGET
    PRINT BUDGET
 UBDSV2 SAVING "   CONSTANT HEAD" ON UNIT   9 AT TIME STEP 10, STRESS PERIOD   1
 UBDSV1 SAVING "FLOW RIGHT FACE " ON UNIT   9 AT TIME STEP 10, STRESS PERIOD   1
 UBDSV1 SAVING "FLOW FRONT FACE " ON UNIT   9 AT TIME STEP 10, STRESS PERIOD   1
 UBDSV1 SAVING "FLOW LOWER FACE " ON UNIT   9 AT TIME STEP 10, STRESS PERIOD   1
 UBDSV4 SAVING "           WELLS" ON UNIT   9 AT TIME STEP 10, STRESS PERIOD   1
 UBDSV4 SAVING "   RIVER LEAKAGE" ON UNIT   9 AT TIME STEP 10, STRESS PERIOD   1
 UBDSV3 SAVING "              ET" ON UNIT   9 AT TIME STEP 10, STRESS PERIOD   1
 UBDSV4 SAVING " HEAD DEP BOUNDS" ON UNIT   9 AT TIME STEP 10, STRESS PERIOD   1
 UBDSV3 SAVING "        RECHARGE" ON UNIT   9 AT TIME STEP 10, STRESS PERIOD   1
 SOLVING FOR ZETA FOR LAYER     1 ZONE     2
     2 CALLS TO PCG ROUTINE FOR TIME STEP  10 IN STRESS PERIOD    1
     6 TOTAL ITERATIONS

 MAXIMUM HEAD CHANGE FOR EACH ITERATION (1 INDICATES THE FIRST INNER ITERATION):

    HEAD CHANGE    HEAD CHANGE    HEAD CHANGE    HEAD CHANGE    HEAD CHANGE 
   LAYER,ROW,COL  LAYER,ROW,COL  LAYER,ROW,COL  LAYER,ROW,COL  LAYER,ROW,COL
 ---------------------------------------------------------------------------
  1  -5.898      0 -0.4422      0  0.2043E-01  0 -0.1034E-02  0  0.6437E-04
   (  1, 14,  3)  (  1, 14,  4)  (  1, 33,  4)  (  1, 33,  4)  (  1, 15,  3)
  1  0.2911E-05
   (  1, 14,  4)

 MAXIMUM RESIDUAL FOR EACH ITERATION (1 INDICATES THE FIRST INNER ITERATION):

    RESIDUAL       RESIDUAL       RESIDUAL       RESIDUAL       RESIDUAL    
   LAYER,ROW,COL  LAYER,ROW,COL  LAYER,ROW,COL  LAYER,ROW,COL  LAYER,ROW,COL
 ---------------------------------------------------------------------------
  1 -0.4243E-04  0  0.2494E-05  0  0.1187E-06  0 -0.8245E-08  0 -0.2615E-09
   (  1, 34,  3)  (  1, 34,  3)  (  1, 33,  4)  (  1, 15,  3)  (  1, 14,  4)
  1 -0.1893E-10
   (  1, 15,  3)


 SOLVING FOR ZETA FOR LAYER     2 ZONE     2
     2 CALLS TO PCG ROUTINE FOR TIME STEP  10 IN STRESS PERIOD    1
     5 TOTAL ITERATIONS

 MAXIMUM HEAD CHANGE FOR EACH ITERATION (1 INDICATES THE FIRST INNER ITERATION):

    HEAD CHANGE    HEAD CHANGE    HEAD CHANGE    HEAD CHANGE    HEAD CHANGE 
   LAYER,ROW,COL  LAYER,ROW,COL  LAYER,ROW,COL  LAYER,ROW,COL  LAYER,ROW,COL
 ---------------------------------------------------------------------------
  1  -3.424      0 -0.3151      0 -0.1464E-01  0  0.4876E-03  1  0.2946E-04
   (  1, 26,  5)  (  1, 25,  6)  (  1, 26,  5)  (  1, 30,  6)  (  1, 31,  5)

 MAXIMUM RESIDUAL FOR EACH ITERATION (1 INDICATES THE FIRST INNER ITERATION):

    RESIDUAL       RESIDUAL       RESIDUAL       RESIDUAL       RESIDUAL    
   LAYER,ROW,COL  LAYER,ROW,COL  LAYER,ROW,COL  LAYER,ROW,COL  LAYER,ROW,COL
 ---------------------------------------------------------------------------
  1  0.3024E-04  0  0.1462E-05  0 -0.4319E-07  0 -0.2985E-08  1  0.1936E-09
   (  1, 25,  6)  (  1, 26,  5)  (  1, 30,  6)  (  1, 31,  5)  (  1, 26,  6)


 UBUDSV SAVING "      ZETASRF  1" ON UNIT170 AT TIME STEP 10, STRESS PERIOD    1


                      VOLUMETRIC SWI ZONE BUDGET FOR ENTIRE MODEL
                     AT END OF TIME STEP   10 IN STRESS PERIOD   1
                                      ZONE     1
  -----------------------------------------------------------------------------------

        CUMULATIVE VOLUMES      L**3       RATES FOR THIS TIME STEP      L**3/T
        ------------------                 ------------------------

              IN:                                      IN:
              ---                                      ---
             BOUNDARIES =   100883168.0000            BOUNDARIES =           0.1604
          CONSTANT HEAD =           0.0000         CONSTANT HEAD =           0.0000
            ZONE CHANGE =    81884624.0000           ZONE CHANGE =       1.4215E-03
       ZONE CHG TIP/TOE =     3551580.0000      ZONE CHG TIP/TOE =       4.1494E-04
            ZONE MIXING =           0.0000           ZONE MIXING =           0.0000

               TOTAL IN =   186319376.0000              TOTAL IN =           0.1622

             OUT:                                     OUT:
             ----                                     ----
             BOUNDARIES =    78449376.0000            BOUNDARIES =           0.1504
          CONSTANT HEAD =           0.0000         CONSTANT HEAD =           0.0000
            ZONE CHANGE =    16772337.0000           ZONE CHANGE =       1.1145E-02
       ZONE CHG TIP/TOE =     3204495.0000      ZONE CHG TIP/TOE =       3.9982E-04
            ZONE MIXING =           0.0000           ZONE MIXING =           0.0000

              TOTAL OUT =    98426208.0000             TOTAL OUT =           0.1619

               IN - OUT =    87893168.0000              IN - OUT =       3.1555E-04

    PERCENT DISCREPANCY =          61.73     PERCENT DISCREPANCY =           0.19



                      VOLUMETRIC SWI ZONE BUDGET FOR ENTIRE MODEL
                     AT END OF TIME STEP   10 IN STRESS PERIOD   1
                                      ZONE     2
  -----------------------------------------------------------------------------------

        CUMULATIVE VOLUMES      L**3       RATES FOR THIS TIME STEP      L**3/T
        ------------------                 ------------------------

              IN:                                      IN:
              ---                                      ---
             BOUNDARIES =           0.0000            BOUNDARIES =           0.0000
          CONSTANT HEAD =           0.0000         CONSTANT HEAD =           0.0000
            ZONE CHANGE =    13611837.0000           ZONE CHANGE =       1.1031E-02
       ZONE CHG TIP/TOE =     3204495.0000      ZONE CHG TIP/TOE =       3.9982E-04
            ZONE MIXING =           0.0000           ZONE MIXING =           0.0000

               TOTAL IN =    16816332.0000              TOTAL IN =       1.1431E-02

             OUT:                                     OUT:
             ----                                     ----
             BOUNDARIES =    22439332.0000            BOUNDARIES =       1.0025E-02
          CONSTANT HEAD =           0.0000         CONSTANT HEAD =           0.0000
            ZONE CHANGE =     1401244.0000           ZONE CHANGE =       1.1188E-03
       ZONE CHG TIP/TOE =     1262518.2500      ZONE CHG TIP/TOE =       3.0267E-04
            ZONE MIXING =           0.0000           ZONE MIXING =           0.0000

              TOTAL OUT =    25103094.0000             TOTAL OUT =       1.1447E-02

               IN - OUT =    -8286762.0000              IN - OUT =      -1.5590E-05

    PERCENT DISCREPANCY =         -39.54     PERCENT DISCREPANCY =          -0.14


 HEAD WILL BE SAVED ON UNIT   37 AT END OF TIME STEP   10, STRESS PERIOD    1

 DRAWDOWN WILL BE SAVED ON UNIT   38 AT END OF TIME STEP   10, STRESS PERIOD    1
1
  VOLUMETRIC BUDGET FOR ENTIRE MODEL AT END OF TIME STEP   10, STRESS PERIOD   1
  ------------------------------------------------------------------------------

     CUMULATIVE VOLUMES      L**3       RATES FOR THIS TIME STEP      L**3/T
     ------------------                 ------------------------

           IN:                                      IN:
           ---                                      ---
             STORAGE =           0.0000               STORAGE =           0.0000
       CONSTANT HEAD =           0.0000         CONSTANT HEAD =           0.0000
               WELLS =           0.0000                 WELLS =           0.0000
       RIVER LEAKAGE =    21917388.0000         RIVER LEAKAGE =       3.4902E-02
                  ET =           0.0000                    ET =           0.0000
     HEAD DEP BOUNDS =           0.0000       HEAD DEP BOUNDS =           0.0000
            RECHARGE =    84134008.0000              RECHARGE =           0.1334
          SWIADDTOCH =           0.0000            SWIADDTOCH =           0.0000

            TOTAL IN =   106051392.0000              TOTAL IN =           0.1683

          OUT:                                     OUT:
          ----                                     ----
             STORAGE =           0.0000               STORAGE =           0.0000
       CONSTANT HEAD =           0.0000         CONSTANT HEAD =           0.0000
               WELLS =           0.0000                 WELLS =           0.0000
       RIVER LEAKAGE =     4528262.5000         RIVER LEAKAGE =       6.9302E-03
                  ET =    34358164.0000                    ET =       5.2722E-02
     HEAD DEP BOUNDS =    67170496.0000       HEAD DEP BOUNDS =           0.1086
            RECHARGE =           0.0000              RECHARGE =           0.0000
          SWIADDTOCH =           0.0000            SWIADDTOCH =           0.0000

           TOTAL OUT =   106056928.0000             TOTAL OUT =           0.1683

            IN - OUT =       -5536.0000              IN - OUT =      -1.1623E-06

 PERCENT DISCREPANCY =          -0.01     PERCENT DISCREPANCY =          -0.00






         TIME SUMMARY AT END OF TIME STEP   10 IN STRESS PERIOD    1
                    SECONDS     MINUTES      HOURS       DAYS        YEARS
                    -----------------------------------------------------------
   TIME STEP LENGTH 6.30720E+07 1.05120E+06  17520.      730.00      1.9986    
 STRESS PERIOD TIME 6.30720E+08 1.05120E+07 1.75200E+05  7300.0      19.986    
         TOTAL TIME 6.30720E+08 1.05120E+07 1.75200E+05  7300.0      19.986    
1
 
 SOLVING FOR HEAD 
     2 CALLS TO PCG ROUTINE FOR TIME STEP  11 IN STRESS PERIOD    1
    17 TOTAL ITERATIONS

 MAXIMUM HEAD CHANGE FOR EACH ITERATION (1 INDICATES THE FIRST INNER ITERATION):

    HEAD CHANGE    HEAD CHANGE    HEAD CHANGE    HEAD CHANGE    HEAD CHANGE 
   LAYER,ROW,COL  LAYER,ROW,COL  LAYER,ROW,COL  LAYER,ROW,COL  LAYER,ROW,COL
 ---------------------------------------------------------------------------
  1  0.1329      0  0.4424E-01  0  0.2483      0 -0.3355      0  0.1117    
   (  2, 34,  4)  (  1, 35,  8)  (  2, 59, 34)  (  2, 59, 34)  (  2, 59, 34)
  0 -0.1309E-01  0 -0.7339E-02  0  0.1640E-01  0 -0.8908E-02  0 -0.5337E-02
   (  2, 59, 34)  (  2, 37, 11)  (  2, 58, 31)  (  2, 58, 31)  (  2, 58, 31)
  0 -0.6687E-02  0  0.8071E-02  0  0.1272E-01  0 -0.1010E-01  0 -0.5172E-02
   (  2, 57, 37)  (  2, 58, 31)  (  2, 59, 34)  (  2, 59, 34)  (  2, 57, 37)
  0 -0.4624E-03  1  0.4510E-03
   (  2, 19, 52)  (  2, 57, 37)

 MAXIMUM RESIDUAL FOR EACH ITERATION (1 INDICATES THE FIRST INNER ITERATION):

    RESIDUAL       RESIDUAL       RESIDUAL       RESIDUAL       RESIDUAL    
   LAYER,ROW,COL  LAYER,ROW,COL  LAYER,ROW,COL  LAYER,ROW,COL  LAYER,ROW,COL
 ---------------------------------------------------------------------------
  1  0.3238E-03  0 -0.1362E-03  0 -0.1091E-03  0 -0.9847E-04  0 -0.8210E-04
   (  2, 34,  5)  (  1, 34,  5)  (  1, 34,  5)  (  1, 34,  5)  (  1, 34,  5)
  0 -0.7741E-04  0 -0.2993E-04  0 -0.1323E-04  0 -0.8939E-05  0 -0.7824E-05
   (  1, 34,  5)  (  1, 34,  5)  (  1, 34,  5)  (  2, 34,  4)  (  2, 34,  4)
  0  0.4466E-05  0  0.3019E-05  0  0.2651E-05  0  0.1667E-05  0  0.8589E-06
   (  1, 33,  5)  (  1, 33,  5)  (  1, 33,  5)  (  1, 33,  5)  (  1, 34,  5)
  0  0.8340E-06  1  0.2192E-05
   (  1, 34,  5)  (  1, 34,  5)



 OUTPUT CONTROL FOR STRESS PERIOD    1   TIME STEP   11
    SAVE HEAD FOR ALL LAYERS
    SAVE DRAWDOWN FOR ALL LAYERS
    SAVE BUDGET
    PRINT BUDGET
 UBDSV2 SAVING "   CONSTANT HEAD" ON UNIT   9 AT TIME STEP 11, STRESS PERIOD   1
 UBDSV1 SAVING "FLOW RIGHT FACE " ON UNIT   9 AT TIME STEP 11, STRESS PERIOD   1
 UBDSV1 SAVING "FLOW FRONT FACE " ON UNIT   9 AT TIME STEP 11, STRESS PERIOD   1
 UBDSV1 SAVING "FLOW LOWER FACE " ON UNIT   9 AT TIME STEP 11, STRESS PERIOD   1
 UBDSV4 SAVING "           WELLS" ON UNIT   9 AT TIME STEP 11, STRESS PERIOD   1
 UBDSV4 SAVING "   RIVER LEAKAGE" ON UNIT   9 AT TIME STEP 11, STRESS PERIOD   1
 UBDSV3 SAVING "              ET" ON UNIT   9 AT TIME STEP 11, STRESS PERIOD   1
 UBDSV4 SAVING " HEAD DEP BOUNDS" ON UNIT   9 AT TIME STEP 11, STRESS PERIOD   1
 UBDSV3 SAVING "        RECHARGE" ON UNIT   9 AT TIME STEP 11, STRESS PERIOD   1
 SOLVING FOR ZETA FOR LAYER     1 ZONE     2
     2 CALLS TO PCG ROUTINE FOR TIME STEP  11 IN STRESS PERIOD    1
     5 TOTAL ITERATIONS

 MAXIMUM HEAD CHANGE FOR EACH ITERATION (1 INDICATES THE FIRST INNER ITERATION):

    HEAD CHANGE    HEAD CHANGE    HEAD CHANGE    HEAD CHANGE    HEAD CHANGE 
   LAYER,ROW,COL  LAYER,ROW,COL  LAYER,ROW,COL  LAYER,ROW,COL  LAYER,ROW,COL
 ---------------------------------------------------------------------------
  1  -5.798      0 -0.3122      0 -0.1598E-01  0 -0.9783E-03  1  0.3618E-04
   (  1,  8,  3)  (  1, 14,  4)  (  1, 34,  3)  (  1, 33,  4)  (  1, 15,  3)

 MAXIMUM RESIDUAL FOR EACH ITERATION (1 INDICATES THE FIRST INNER ITERATION):

    RESIDUAL       RESIDUAL       RESIDUAL       RESIDUAL       RESIDUAL    
   LAYER,ROW,COL  LAYER,ROW,COL  LAYER,ROW,COL  LAYER,ROW,COL  LAYER,ROW,COL
 ---------------------------------------------------------------------------
  1  0.2705E-04  0  0.2093E-05  0  0.1152E-06  0 -0.4407E-08  1  0.3103E-09
   (  1, 14,  4)  (  1, 34,  3)  (  1, 33,  4)  (  1, 15,  3)  (  1, 33,  4)


 SOLVING FOR ZETA FOR LAYER     2 ZONE     2
     2 CALLS TO PCG ROUTINE FOR TIME STEP  11 IN STRESS PERIOD    1
     5 TOTAL ITERATIONS

 MAXIMUM HEAD CHANGE FOR EACH ITERATION (1 INDICATES THE FIRST INNER ITERATION):

    HEAD CHANGE    HEAD CHANGE    HEAD CHANGE    HEAD CHANGE    HEAD CHANGE 
   LAYER,ROW,COL  LAYER,ROW,COL  LAYER,ROW,COL  LAYER,ROW,COL  LAYER,ROW,COL
 ---------------------------------------------------------------------------
  1  -3.539      0 -0.1928      0 -0.1009E-01  0  0.2417E-03  1  0.1348E-04
   (  1, 34,  4)  (  1, 25,  6)  (  1, 26,  5)  (  1, 30,  6)  (  1, 31,  5)

 MAXIMUM RESIDUAL FOR EACH ITERATION (1 INDICATES THE FIRST INNER ITERATION):

    RESIDUAL       RESIDUAL       RESIDUAL       RESIDUAL       RESIDUAL    
   LAYER,ROW,COL  LAYER,ROW,COL  LAYER,ROW,COL  LAYER,ROW,COL  LAYER,ROW,COL
 ---------------------------------------------------------------------------
  1  0.1874E-04  0  0.1006E-05  0  0.2292E-07  0  0.1502E-08  1  0.8944E-10
   (  1, 25,  6)  (  1, 26,  5)  (  1, 26,  6)  (  1, 27,  5)  (  1, 26,  6)


 UBUDSV SAVING "      ZETASRF  1" ON UNIT170 AT TIME STEP 11, STRESS PERIOD    1


                      VOLUMETRIC SWI ZONE BUDGET FOR ENTIRE MODEL
                     AT END OF TIME STEP   11 IN STRESS PERIOD   1
                                      ZONE     1
  -----------------------------------------------------------------------------------

        CUMULATIVE VOLUMES      L**3       RATES FOR THIS TIME STEP      L**3/T
        ------------------                 ------------------------

              IN:                                      IN:
              ---                                      ---
             BOUNDARIES =   111002136.0000            BOUNDARIES =           0.1604
          CONSTANT HEAD =           0.0000         CONSTANT HEAD =           0.0000
            ZONE CHANGE =    81942992.0000           ZONE CHANGE =       9.2539E-04
       ZONE CHG TIP/TOE =     3586830.0000      ZONE CHG TIP/TOE =       5.5888E-04
            ZONE MIXING =           0.0000           ZONE MIXING =           0.0000

               TOTAL IN =   196531968.0000              TOTAL IN =           0.1619

             OUT:                                     OUT:
             ----                                     ----
             BOUNDARIES =    88005336.0000            BOUNDARIES =           0.1515
          CONSTANT HEAD =           0.0000         CONSTANT HEAD =           0.0000
            ZONE CHANGE =    17380146.0000           ZONE CHANGE =       9.6368E-03
       ZONE CHG TIP/TOE =     3234356.7500      ZONE CHG TIP/TOE =       4.7345E-04
            ZONE MIXING =           0.0000           ZONE MIXING =           0.0000

              TOTAL OUT =   108619840.0000             TOTAL OUT =           0.1616

               IN - OUT =    87912128.0000              IN - OUT =       3.0050E-04

    PERCENT DISCREPANCY =          57.62     PERCENT DISCREPANCY =           0.19



                      VOLUMETRIC SWI ZONE BUDGET FOR ENTIRE MODEL
                     AT END OF TIME STEP   11 IN STRESS PERIOD   1
                                      ZONE     2
  -----------------------------------------------------------------------------------

        CUMULATIVE VOLUMES      L**3       RATES FOR THIS TIME STEP      L**3/T
        ------------------                 ------------------------

              IN:                                      IN:
              ---                                      ---
             BOUNDARIES =           0.0000            BOUNDARIES =           0.0000
          CONSTANT HEAD =           0.0000         CONSTANT HEAD =           0.0000
            ZONE CHANGE =    14210646.0000           ZONE CHANGE =       9.4941E-03
       ZONE CHG TIP/TOE =     3234356.7500      ZONE CHG TIP/TOE =       4.7345E-04
            ZONE MIXING =           0.0000           ZONE MIXING =           0.0000

               TOTAL IN =    17445002.0000              TOTAL IN =       9.9675E-03

             OUT:                                     OUT:
             ----                                     ----
             BOUNDARIES =    23003174.0000            BOUNDARIES =       8.9397E-03
          CONSTANT HEAD =           0.0000         CONSTANT HEAD =           0.0000
            ZONE CHANGE =     1445128.5000           ZONE CHANGE =       6.9578E-04
       ZONE CHG TIP/TOE =     1288795.0000      ZONE CHG TIP/TOE =       4.1662E-04
            ZONE MIXING =           0.0000           ZONE MIXING =           0.0000

              TOTAL OUT =    25737098.0000             TOTAL OUT =       1.0052E-02

               IN - OUT =    -8292096.0000              IN - OUT =      -8.4535E-05

    PERCENT DISCREPANCY =         -38.41     PERCENT DISCREPANCY =          -0.84


 HEAD WILL BE SAVED ON UNIT   37 AT END OF TIME STEP   11, STRESS PERIOD    1

 DRAWDOWN WILL BE SAVED ON UNIT   38 AT END OF TIME STEP   11, STRESS PERIOD    1
1
  VOLUMETRIC BUDGET FOR ENTIRE MODEL AT END OF TIME STEP   11, STRESS PERIOD   1
  ------------------------------------------------------------------------------

     CUMULATIVE VOLUMES      L**3       RATES FOR THIS TIME STEP      L**3/T
     ------------------                 ------------------------

           IN:                                      IN:
           ---                                      ---
             STORAGE =           0.0000               STORAGE =           0.0000
       CONSTANT HEAD =           0.0000         CONSTANT HEAD =           0.0000
               WELLS =           0.0000                 WELLS =           0.0000
       RIVER LEAKAGE =    24119910.0000         RIVER LEAKAGE =       3.4921E-02
                  ET =           0.0000                    ET =           0.0000
     HEAD DEP BOUNDS =           0.0000       HEAD DEP BOUNDS =           0.0000
            RECHARGE =    92547408.0000              RECHARGE =           0.1334
          SWIADDTOCH =           0.0000            SWIADDTOCH =           0.0000

            TOTAL IN =   116667320.0000              TOTAL IN =           0.1683

          OUT:                                     OUT:
          ----                                     ----
             STORAGE =           0.0000               STORAGE =           0.0000
       CONSTANT HEAD =           0.0000         CONSTANT HEAD =           0.0000
               WELLS =           0.0000                 WELLS =           0.0000
       RIVER LEAKAGE =     4963220.5000         RIVER LEAKAGE =       6.8962E-03
                  ET =    37674024.0000                    ET =       5.2573E-02
     HEAD DEP BOUNDS =    74036432.0000       HEAD DEP BOUNDS =           0.1089
            RECHARGE =           0.0000              RECHARGE =           0.0000
          SWIADDTOCH =           0.0000            SWIADDTOCH =           0.0000

           TOTAL OUT =   116673680.0000             TOTAL OUT =           0.1683

            IN - OUT =       -6360.0000              IN - OUT =      -1.3217E-05

 PERCENT DISCREPANCY =          -0.01     PERCENT DISCREPANCY =          -0.01






         TIME SUMMARY AT END OF TIME STEP   11 IN STRESS PERIOD    1
                    SECONDS     MINUTES      HOURS       DAYS        YEARS
                    -----------------------------------------------------------
   TIME STEP LENGTH 6.30720E+07 1.05120E+06  17520.      730.00      1.9986    
 STRESS PERIOD TIME 6.93792E+08 1.15632E+07 1.92720E+05  8030.0      21.985    
         TOTAL TIME 6.93792E+08 1.15632E+07 1.92720E+05  8030.0      21.985    
1
 
 SOLVING FOR HEAD 
     3 CALLS TO PCG ROUTINE FOR TIME STEP  12 IN STRESS PERIOD    1
    25 TOTAL ITERATIONS

 MAXIMUM HEAD CHANGE FOR EACH ITERATION (1 INDICATES THE FIRST INNER ITERATION):

    HEAD CHANGE    HEAD CHANGE    HEAD CHANGE    HEAD CHANGE    HEAD CHANGE 
   LAYER,ROW,COL  LAYER,ROW,COL  LAYER,ROW,COL  LAYER,ROW,COL  LAYER,ROW,COL
 ---------------------------------------------------------------------------
  1  0.1267      0  0.7502E-01  0 -0.5997E-01  0  0.2543      0 -0.2366    
   (  1, 19,  3)  (  2, 19, 52)  (  2, 19, 52)  (  2, 59, 34)  (  2, 59, 34)
  0 -0.7594E-01  0 -0.4006E-01  0  0.2758E-01  0  0.1183E-01  0  0.6527E-02
   (  2, 57, 37)  (  2, 57, 37)  (  2, 57, 37)  (  2, 57, 37)  (  2, 58, 31)
  0 -0.5178E-02  0 -0.7108E-02  0  0.9952E-02  0 -0.1344E-01  0  0.8587E-02
   (  2, 57, 37)  (  2, 59, 34)  (  2, 59, 34)  (  2, 59, 34)  (  2, 59, 34)
  0  0.2293E-02  0 -0.1505E-02  0 -0.1226E-02  0 -0.6519E-03  1  0.2072E-02
   (  2, 58, 31)  (  2, 58, 31)  (  2, 57, 37)  (  2, 58, 32)  (  2, 59, 34)
  0 -0.2709E-02  0  0.2559E-02  0 -0.1835E-02  0 -0.2139E-03  1 -0.1313E-03
   (  2, 59, 34)  (  2, 59, 34)  (  2, 59, 34)  (  2, 19, 52)  (  2, 22, 49)

 MAXIMUM RESIDUAL FOR EACH ITERATION (1 INDICATES THE FIRST INNER ITERATION):

    RESIDUAL       RESIDUAL       RESIDUAL       RESIDUAL       RESIDUAL    
   LAYER,ROW,COL  LAYER,ROW,COL  LAYER,ROW,COL  LAYER,ROW,COL  LAYER,ROW,COL
 ---------------------------------------------------------------------------
  1  0.4164E-03  0  0.3804E-03  0  0.8083E-04  0  0.6798E-04  0  0.4349E-04
   (  2, 20,  3)  (  2, 20,  3)  (  2, 20,  3)  (  2, 20,  3)  (  2, 20,  3)
  0  0.3270E-04  0  0.2427E-04  0  0.1680E-04  0  0.1368E-04  0  0.1070E-04
   (  2, 16,  2)  (  2, 16,  2)  (  2, 16,  2)  (  2, 16,  2)  (  2, 16,  2)
  0  0.6365E-05  0  0.5347E-05  0  0.3904E-05  0  0.3500E-05  0  0.1191E-05
   (  2, 16,  2)  (  1, 21,  3)  (  1, 21,  3)  (  1, 21,  3)  (  1, 16,  3)
  0  0.8947E-06  0  0.6875E-06  0 -0.6255E-06  0 -0.7576E-06  1 -0.6436E-06
   (  1, 22,  2)  (  2, 16,  3)  (  1, 21,  3)  (  1, 16,  3)  (  1, 16,  3)
  0 -0.5411E-06  0 -0.4956E-06  0 -0.3270E-06  0 -0.2206E-06  1 -0.2147E-06
   (  1, 16,  3)  (  1, 16,  3)  (  1, 16,  3)  (  1, 16,  3)  (  1, 16,  3)



 OUTPUT CONTROL FOR STRESS PERIOD    1   TIME STEP   12
    SAVE HEAD FOR ALL LAYERS
    SAVE DRAWDOWN FOR ALL LAYERS
    SAVE BUDGET
    PRINT BUDGET
 UBDSV2 SAVING "   CONSTANT HEAD" ON UNIT   9 AT TIME STEP 12, STRESS PERIOD   1
 UBDSV1 SAVING "FLOW RIGHT FACE " ON UNIT   9 AT TIME STEP 12, STRESS PERIOD   1
 UBDSV1 SAVING "FLOW FRONT FACE " ON UNIT   9 AT TIME STEP 12, STRESS PERIOD   1
 UBDSV1 SAVING "FLOW LOWER FACE " ON UNIT   9 AT TIME STEP 12, STRESS PERIOD   1
 UBDSV4 SAVING "           WELLS" ON UNIT   9 AT TIME STEP 12, STRESS PERIOD   1
 UBDSV4 SAVING "   RIVER LEAKAGE" ON UNIT   9 AT TIME STEP 12, STRESS PERIOD   1
 UBDSV3 SAVING "              ET" ON UNIT   9 AT TIME STEP 12, STRESS PERIOD   1
 UBDSV4 SAVING " HEAD DEP BOUNDS" ON UNIT   9 AT TIME STEP 12, STRESS PERIOD   1
 UBDSV3 SAVING "        RECHARGE" ON UNIT   9 AT TIME STEP 12, STRESS PERIOD   1
 SOLVING FOR ZETA FOR LAYER     1 ZONE     2
     2 CALLS TO PCG ROUTINE FOR TIME STEP  12 IN STRESS PERIOD    1
     6 TOTAL ITERATIONS

 MAXIMUM HEAD CHANGE FOR EACH ITERATION (1 INDICATES THE FIRST INNER ITERATION):

    HEAD CHANGE    HEAD CHANGE    HEAD CHANGE    HEAD CHANGE    HEAD CHANGE 
   LAYER,ROW,COL  LAYER,ROW,COL  LAYER,ROW,COL  LAYER,ROW,COL  LAYER,ROW,COL
 ---------------------------------------------------------------------------
  1  -5.981      0 -0.4677      0 -0.1840E-01  0  0.1161E-02  0  0.5719E-04
   (  1, 29,  4)  (  1, 17,  4)  (  1, 19,  3)  (  1, 28,  5)  (  1, 29,  4)
  1 -0.1760E-05
   (  1, 23,  5)

 MAXIMUM RESIDUAL FOR EACH ITERATION (1 INDICATES THE FIRST INNER ITERATION):

    RESIDUAL       RESIDUAL       RESIDUAL       RESIDUAL       RESIDUAL    
   LAYER,ROW,COL  LAYER,ROW,COL  LAYER,ROW,COL  LAYER,ROW,COL  LAYER,ROW,COL
 ---------------------------------------------------------------------------
  1  0.4331E-04  0  0.2267E-05  0 -0.1081E-06  0 -0.5520E-08  0 -0.1755E-09
   (  1, 19,  4)  (  1, 18,  3)  (  1, 28,  5)  (  1, 29,  4)  (  1, 34,  3)
  1 -0.1462E-10
   (  1, 33,  4)


 SOLVING FOR ZETA FOR LAYER     2 ZONE     2
     2 CALLS TO PCG ROUTINE FOR TIME STEP  12 IN STRESS PERIOD    1
     5 TOTAL ITERATIONS

 MAXIMUM HEAD CHANGE FOR EACH ITERATION (1 INDICATES THE FIRST INNER ITERATION):

    HEAD CHANGE    HEAD CHANGE    HEAD CHANGE    HEAD CHANGE    HEAD CHANGE 
   LAYER,ROW,COL  LAYER,ROW,COL  LAYER,ROW,COL  LAYER,ROW,COL  LAYER,ROW,COL
 ---------------------------------------------------------------------------
  1  -2.388      0 -0.1136      0 -0.6440E-02  0 -0.1458E-03  1  0.8262E-05
   (  1, 11,  4)  (  1, 24,  6)  (  1, 26,  5)  (  1, 26,  6)  (  1, 31,  5)

 MAXIMUM RESIDUAL FOR EACH ITERATION (1 INDICATES THE FIRST INNER ITERATION):

    RESIDUAL       RESIDUAL       RESIDUAL       RESIDUAL       RESIDUAL    
   LAYER,ROW,COL  LAYER,ROW,COL  LAYER,ROW,COL  LAYER,ROW,COL  LAYER,ROW,COL
 ---------------------------------------------------------------------------
  1  0.1058E-04  0  0.6537E-06  0  0.1418E-07  0  0.9139E-09  1  0.5179E-10
   (  1, 25,  6)  (  1, 26,  5)  (  1, 26,  6)  (  1, 29,  5)  (  1, 26,  6)


 UBUDSV SAVING "      ZETASRF  1" ON UNIT170 AT TIME STEP 12, STRESS PERIOD    1


                      VOLUMETRIC SWI ZONE BUDGET FOR ENTIRE MODEL
                     AT END OF TIME STEP   12 IN STRESS PERIOD   1
                                      ZONE     1
  -----------------------------------------------------------------------------------

        CUMULATIVE VOLUMES      L**3       RATES FOR THIS TIME STEP      L**3/T
        ------------------                 ------------------------

              IN:                                      IN:
              ---                                      ---
             BOUNDARIES =   121125088.0000            BOUNDARIES =           0.1605
          CONSTANT HEAD =           0.0000         CONSTANT HEAD =           0.0000
            ZONE CHANGE =    82025312.0000           ZONE CHANGE =       1.3052E-03
       ZONE CHG TIP/TOE =     3593754.2500      ZONE CHG TIP/TOE =       1.0978E-04
            ZONE MIXING =           0.0000           ZONE MIXING =           0.0000

               TOTAL IN =   206744160.0000              TOTAL IN =           0.1619

             OUT:                                     OUT:
             ----                                     ----
             BOUNDARIES =    97637256.0000            BOUNDARIES =           0.1527
          CONSTANT HEAD =           0.0000         CONSTANT HEAD =           0.0000
            ZONE CHANGE =    17934104.0000           ZONE CHANGE =       8.7830E-03
       ZONE CHG TIP/TOE =     3244523.5000      ZONE CHG TIP/TOE =       1.6119E-04
            ZONE MIXING =           0.0000           ZONE MIXING =           0.0000

              TOTAL OUT =   118815888.0000             TOTAL OUT =           0.1617

               IN - OUT =    87928272.0000              IN - OUT =       2.5608E-04

    PERCENT DISCREPANCY =          54.02     PERCENT DISCREPANCY =           0.16



                      VOLUMETRIC SWI ZONE BUDGET FOR ENTIRE MODEL
                     AT END OF TIME STEP   12 IN STRESS PERIOD   1
                                      ZONE     2
  -----------------------------------------------------------------------------------

        CUMULATIVE VOLUMES      L**3       RATES FOR THIS TIME STEP      L**3/T
        ------------------                 ------------------------

              IN:                                      IN:
              ---                                      ---
             BOUNDARIES =           0.0000            BOUNDARIES =           0.0000
          CONSTANT HEAD =           0.0000         CONSTANT HEAD =           0.0000
            ZONE CHANGE =    14757680.0000           ZONE CHANGE =       8.6732E-03
       ZONE CHG TIP/TOE =     3244523.5000      ZONE CHG TIP/TOE =       1.6119E-04
            ZONE MIXING =           0.0000           ZONE MIXING =           0.0000

               TOTAL IN =    18002204.0000              TOTAL IN =       8.8344E-03

             OUT:                                     OUT:
             ----                                     ----
             BOUNDARIES =    23494338.0000            BOUNDARIES =       7.7874E-03
          CONSTANT HEAD =           0.0000         CONSTANT HEAD =           0.0000
            ZONE CHANGE =     1508010.5000           ZONE CHANGE =       9.9699E-04
       ZONE CHG TIP/TOE =     1288795.0000      ZONE CHG TIP/TOE =           0.0000
            ZONE MIXING =           0.0000           ZONE MIXING =           0.0000

              TOTAL OUT =    26291144.0000             TOTAL OUT =       8.7844E-03

               IN - OUT =    -8288940.0000              IN - OUT =       5.0006E-05

    PERCENT DISCREPANCY =         -37.43     PERCENT DISCREPANCY =           0.57


 HEAD WILL BE SAVED ON UNIT   37 AT END OF TIME STEP   12, STRESS PERIOD    1

 DRAWDOWN WILL BE SAVED ON UNIT   38 AT END OF TIME STEP   12, STRESS PERIOD    1
1
  VOLUMETRIC BUDGET FOR ENTIRE MODEL AT END OF TIME STEP   12, STRESS PERIOD   1
  ------------------------------------------------------------------------------

     CUMULATIVE VOLUMES      L**3       RATES FOR THIS TIME STEP      L**3/T
     ------------------                 ------------------------

           IN:                                      IN:
           ---                                      ---
             STORAGE =           0.0000               STORAGE =           0.0000
       CONSTANT HEAD =           0.0000         CONSTANT HEAD =           0.0000
               WELLS =           0.0000                 WELLS =           0.0000
       RIVER LEAKAGE =    26323590.0000         RIVER LEAKAGE =       3.4939E-02
                  ET =           0.0000                    ET =           0.0000
     HEAD DEP BOUNDS =           0.0000       HEAD DEP BOUNDS =           0.0000
            RECHARGE =   100960808.0000              RECHARGE =           0.1334
          SWIADDTOCH =           0.0000            SWIADDTOCH =           0.0000

            TOTAL IN =   127284400.0000              TOTAL IN =           0.1683

          OUT:                                     OUT:
          ----                                     ----
             STORAGE =           0.0000               STORAGE =           0.0000
       CONSTANT HEAD =           0.0000         CONSTANT HEAD =           0.0000
               WELLS =           0.0000                 WELLS =           0.0000
       RIVER LEAKAGE =     5396335.0000         RIVER LEAKAGE =       6.8670E-03
                  ET =    40975516.0000                    ET =       5.2345E-02
     HEAD DEP BOUNDS =    80919040.0000       HEAD DEP BOUNDS =           0.1091
            RECHARGE =           0.0000              RECHARGE =           0.0000
          SWIADDTOCH =           0.0000            SWIADDTOCH =           0.0000

           TOTAL OUT =   127290896.0000             TOTAL OUT =           0.1683

            IN - OUT =       -6496.0000              IN - OUT =      -2.1011E-06

 PERCENT DISCREPANCY =          -0.01     PERCENT DISCREPANCY =          -0.00






         TIME SUMMARY AT END OF TIME STEP   12 IN STRESS PERIOD    1
                    SECONDS     MINUTES      HOURS       DAYS        YEARS
                    -----------------------------------------------------------
   TIME STEP LENGTH 6.30720E+07 1.05120E+06  17520.      730.00      1.9986    
 STRESS PERIOD TIME 7.56864E+08 1.26144E+07 2.10240E+05  8760.0      23.984    
         TOTAL TIME 7.56864E+08 1.26144E+07 2.10240E+05  8760.0      23.984    
1
 
 SOLVING FOR HEAD 
     2 CALLS TO PCG ROUTINE FOR TIME STEP  13 IN STRESS PERIOD    1
    19 TOTAL ITERATIONS

 MAXIMUM HEAD CHANGE FOR EACH ITERATION (1 INDICATES THE FIRST INNER ITERATION):

    HEAD CHANGE    HEAD CHANGE    HEAD CHANGE    HEAD CHANGE    HEAD CHANGE 
   LAYER,ROW,COL  LAYER,ROW,COL  LAYER,ROW,COL  LAYER,ROW,COL  LAYER,ROW,COL
 ---------------------------------------------------------------------------
  1 -0.7452E-01  0 -0.8632E-01  0  0.1874      0 -0.1372      0  0.7825E-01
   (  2, 29,  3)  (  2, 59, 34)  (  2, 59, 34)  (  2, 59, 34)  (  2, 59, 34)
  0 -0.4643E-01  0 -0.2006E-01  0  0.9998E-02  0  0.7275E-02  0 -0.5792E-02
   (  2, 59, 34)  (  2,  3, 32)  (  2,  3, 32)  (  2,  5, 31)  (  2, 57, 37)
  0  0.3115E-02  0 -0.5788E-02  0  0.1089E-01  0 -0.6517E-02  0  0.1331E-02
   (  2, 57, 37)  (  2, 59, 34)  (  2, 59, 34)  (  2, 59, 34)  (  2, 59, 34)
  0  0.1333E-02  0 -0.1658E-02  0  0.2517E-03  1 -0.1939E-03
   (  2, 58, 31)  (  2, 58, 31)  (  2, 58, 31)  (  2, 22, 49)

 MAXIMUM RESIDUAL FOR EACH ITERATION (1 INDICATES THE FIRST INNER ITERATION):

    RESIDUAL       RESIDUAL       RESIDUAL       RESIDUAL       RESIDUAL    
   LAYER,ROW,COL  LAYER,ROW,COL  LAYER,ROW,COL  LAYER,ROW,COL  LAYER,ROW,COL
 ---------------------------------------------------------------------------
  1  0.2304E-03  0  0.5801E-04  0  0.5249E-04  0  0.5012E-04  0  0.3579E-04
   (  1, 16,  3)  (  2, 20,  3)  (  2, 20,  3)  (  2, 20,  3)  (  2, 20,  3)
  0  0.3141E-04  0  0.2711E-04  0  0.1861E-04  0  0.1338E-04  0  0.6910E-05
   (  2, 16,  2)  (  2, 16,  2)  (  2, 16,  2)  (  2, 16,  2)  (  2, 16,  2)
  0  0.4196E-05  0  0.2832E-05  0  0.2545E-05  0  0.1250E-05  0  0.1137E-05
   (  1, 16,  3)  (  1, 16,  3)  (  1, 16,  3)  (  1, 16,  3)  (  1, 16,  3)
  0  0.5200E-06  0  0.3345E-06  0  0.2765E-06  1  0.3573E-06
   (  1, 16,  3)  (  1, 22,  2)  (  2, 22, 49)  (  1, 33,  5)



 OUTPUT CONTROL FOR STRESS PERIOD    1   TIME STEP   13
    SAVE HEAD FOR ALL LAYERS
    SAVE DRAWDOWN FOR ALL LAYERS
    SAVE BUDGET
    PRINT BUDGET
 UBDSV2 SAVING "   CONSTANT HEAD" ON UNIT   9 AT TIME STEP 13, STRESS PERIOD   1
 UBDSV1 SAVING "FLOW RIGHT FACE " ON UNIT   9 AT TIME STEP 13, STRESS PERIOD   1
 UBDSV1 SAVING "FLOW FRONT FACE " ON UNIT   9 AT TIME STEP 13, STRESS PERIOD   1
 UBDSV1 SAVING "FLOW LOWER FACE " ON UNIT   9 AT TIME STEP 13, STRESS PERIOD   1
 UBDSV4 SAVING "           WELLS" ON UNIT   9 AT TIME STEP 13, STRESS PERIOD   1
 UBDSV4 SAVING "   RIVER LEAKAGE" ON UNIT   9 AT TIME STEP 13, STRESS PERIOD   1
 UBDSV3 SAVING "              ET" ON UNIT   9 AT TIME STEP 13, STRESS PERIOD   1
 UBDSV4 SAVING " HEAD DEP BOUNDS" ON UNIT   9 AT TIME STEP 13, STRESS PERIOD   1
 UBDSV3 SAVING "        RECHARGE" ON UNIT   9 AT TIME STEP 13, STRESS PERIOD   1
 SOLVING FOR ZETA FOR LAYER     1 ZONE     2
     2 CALLS TO PCG ROUTINE FOR TIME STEP  13 IN STRESS PERIOD    1
     5 TOTAL ITERATIONS

 MAXIMUM HEAD CHANGE FOR EACH ITERATION (1 INDICATES THE FIRST INNER ITERATION):

    HEAD CHANGE    HEAD CHANGE    HEAD CHANGE    HEAD CHANGE    HEAD CHANGE 
   LAYER,ROW,COL  LAYER,ROW,COL  LAYER,ROW,COL  LAYER,ROW,COL  LAYER,ROW,COL
 ---------------------------------------------------------------------------
  1  -3.863      0 -0.3326      0 -0.1471E-01  0  0.5268E-03  1  0.2738E-04
   (  1, 11,  3)  (  1, 17,  4)  (  1, 19,  3)  (  1, 24,  5)  (  1, 28,  4)

 MAXIMUM RESIDUAL FOR EACH ITERATION (1 INDICATES THE FIRST INNER ITERATION):

    RESIDUAL       RESIDUAL       RESIDUAL       RESIDUAL       RESIDUAL    
   LAYER,ROW,COL  LAYER,ROW,COL  LAYER,ROW,COL  LAYER,ROW,COL  LAYER,ROW,COL
 ---------------------------------------------------------------------------
  1  0.3121E-04  0  0.1497E-05  0 -0.4364E-07  0 -0.2279E-08  1 -0.2139E-09
   (  1, 19,  4)  (  1, 18,  3)  (  1, 28,  5)  (  1, 28,  4)  (  1, 34,  3)


 SOLVING FOR ZETA FOR LAYER     2 ZONE     2
     2 CALLS TO PCG ROUTINE FOR TIME STEP  13 IN STRESS PERIOD    1
     5 TOTAL ITERATIONS

 MAXIMUM HEAD CHANGE FOR EACH ITERATION (1 INDICATES THE FIRST INNER ITERATION):

    HEAD CHANGE    HEAD CHANGE    HEAD CHANGE    HEAD CHANGE    HEAD CHANGE 
   LAYER,ROW,COL  LAYER,ROW,COL  LAYER,ROW,COL  LAYER,ROW,COL  LAYER,ROW,COL
 ---------------------------------------------------------------------------
  1  -1.902      0 -0.1184      0 -0.5341E-02  0 -0.1142E-03  1  0.5083E-05
   (  1, 11,  4)  (  1, 29,  6)  (  1, 30,  5)  (  1, 26,  6)  (  1, 31,  5)

 MAXIMUM RESIDUAL FOR EACH ITERATION (1 INDICATES THE FIRST INNER ITERATION):

    RESIDUAL       RESIDUAL       RESIDUAL       RESIDUAL       RESIDUAL    
   LAYER,ROW,COL  LAYER,ROW,COL  LAYER,ROW,COL  LAYER,ROW,COL  LAYER,ROW,COL
 ---------------------------------------------------------------------------
  1  0.1012E-04  0  0.5419E-06  0  0.1036E-07  0  0.5990E-09  1  0.3103E-10
   (  1, 29,  6)  (  1, 30,  5)  (  1, 26,  6)  (  1, 27,  5)  (  1, 26,  6)


 UBUDSV SAVING "      ZETASRF  1" ON UNIT170 AT TIME STEP 13, STRESS PERIOD    1


                      VOLUMETRIC SWI ZONE BUDGET FOR ENTIRE MODEL
                     AT END OF TIME STEP   13 IN STRESS PERIOD   1
                                      ZONE     1
  -----------------------------------------------------------------------------------

        CUMULATIVE VOLUMES      L**3       RATES FOR THIS TIME STEP      L**3/T
        ------------------                 ------------------------

              IN:                                      IN:
              ---                                      ---
             BOUNDARIES =   131249376.0000            BOUNDARIES =           0.1605
          CONSTANT HEAD =           0.0000         CONSTANT HEAD =           0.0000
            ZONE CHANGE =    82062000.0000           ZONE CHANGE =       5.8164E-04
       ZONE CHG TIP/TOE =     3602692.2500      ZONE CHG TIP/TOE =       1.4171E-04
            ZONE MIXING =           0.0000           ZONE MIXING =           0.0000

               TOTAL IN =   216914080.0000              TOTAL IN =           0.1612

             OUT:                                     OUT:
             ----                                     ----
             BOUNDARIES =   107330416.0000            BOUNDARIES =           0.1537
          CONSTANT HEAD =           0.0000         CONSTANT HEAD =           0.0000
            ZONE CHANGE =    18398216.0000           ZONE CHANGE =       7.3585E-03
       ZONE CHG TIP/TOE =     3254222.7500      ZONE CHG TIP/TOE =       1.5378E-04
            ZONE MIXING =           0.0000           ZONE MIXING =           0.0000

              TOTAL OUT =   128982856.0000             TOTAL OUT =           0.1612

               IN - OUT =    87931224.0000              IN - OUT =       4.6551E-05

    PERCENT DISCREPANCY =          50.84     PERCENT DISCREPANCY =           0.03



                      VOLUMETRIC SWI ZONE BUDGET FOR ENTIRE MODEL
                     AT END OF TIME STEP   13 IN STRESS PERIOD   1
                                      ZONE     2
  -----------------------------------------------------------------------------------

        CUMULATIVE VOLUMES      L**3       RATES FOR THIS TIME STEP      L**3/T
        ------------------                 ------------------------

              IN:                                      IN:
              ---                                      ---
             BOUNDARIES =           0.0000            BOUNDARIES =           0.0000
          CONSTANT HEAD =           0.0000         CONSTANT HEAD =           0.0000
            ZONE CHANGE =    15220683.0000           ZONE CHANGE =       7.3409E-03
       ZONE CHG TIP/TOE =     3254222.7500      ZONE CHG TIP/TOE =       1.5378E-04
            ZONE MIXING =           0.0000           ZONE MIXING =           0.0000

               TOTAL IN =    18474906.0000              TOTAL IN =       7.4946E-03

             OUT:                                     OUT:
             ----                                     ----
             BOUNDARIES =    23925764.0000            BOUNDARIES =       6.8402E-03
          CONSTANT HEAD =           0.0000         CONSTANT HEAD =           0.0000
            ZONE CHANGE =     1540361.8750           ZONE CHANGE =       5.1293E-04
       ZONE CHG TIP/TOE =     1296912.7500      ZONE CHG TIP/TOE =       1.2871E-04
            ZONE MIXING =           0.0000           ZONE MIXING =           0.0000

              TOTAL OUT =    26763038.0000             TOTAL OUT =       7.4818E-03

               IN - OUT =    -8288132.0000              IN - OUT =       1.2796E-05

    PERCENT DISCREPANCY =         -36.64     PERCENT DISCREPANCY =           0.17


 HEAD WILL BE SAVED ON UNIT   37 AT END OF TIME STEP   13, STRESS PERIOD    1

 DRAWDOWN WILL BE SAVED ON UNIT   38 AT END OF TIME STEP   13, STRESS PERIOD    1
1
  VOLUMETRIC BUDGET FOR ENTIRE MODEL AT END OF TIME STEP   13, STRESS PERIOD   1
  ------------------------------------------------------------------------------

     CUMULATIVE VOLUMES      L**3       RATES FOR THIS TIME STEP      L**3/T
     ------------------                 ------------------------

           IN:                                      IN:
           ---                                      ---
             STORAGE =           0.0000               STORAGE =           0.0000
       CONSTANT HEAD =           0.0000         CONSTANT HEAD =           0.0000
               WELLS =           0.0000                 WELLS =           0.0000
       RIVER LEAKAGE =    28527908.0000         RIVER LEAKAGE =       3.4949E-02
                  ET =           0.0000                    ET =           0.0000
     HEAD DEP BOUNDS =           0.0000       HEAD DEP BOUNDS =           0.0000
            RECHARGE =   109374208.0000              RECHARGE =           0.1334
          SWIADDTOCH =           0.0000            SWIADDTOCH =           0.0000

            TOTAL IN =   137902112.0000              TOTAL IN =           0.1683

          OUT:                                     OUT:
          ----                                     ----
             STORAGE =           0.0000               STORAGE =           0.0000
       CONSTANT HEAD =           0.0000         CONSTANT HEAD =           0.0000
               WELLS =           0.0000                 WELLS =           0.0000
       RIVER LEAKAGE =     5828594.5000         RIVER LEAKAGE =       6.8534E-03
                  ET =    44274652.0000                    ET =       5.2307E-02
     HEAD DEP BOUNDS =    87805664.0000       HEAD DEP BOUNDS =           0.1092
            RECHARGE =           0.0000              RECHARGE =           0.0000
          SWIADDTOCH =           0.0000            SWIADDTOCH =           0.0000

           TOTAL OUT =   137908912.0000             TOTAL OUT =           0.1683

            IN - OUT =       -6800.0000              IN - OUT =      -4.7535E-06

 PERCENT DISCREPANCY =          -0.00     PERCENT DISCREPANCY =          -0.00






         TIME SUMMARY AT END OF TIME STEP   13 IN STRESS PERIOD    1
                    SECONDS     MINUTES      HOURS       DAYS        YEARS
                    -----------------------------------------------------------
   TIME STEP LENGTH 6.30720E+07 1.05120E+06  17520.      730.00      1.9986    
 STRESS PERIOD TIME 8.19936E+08 1.36656E+07 2.27760E+05  9490.0      25.982    
         TOTAL TIME 8.19936E+08 1.36656E+07 2.27760E+05  9490.0      25.982    
1
 
 SOLVING FOR HEAD 
     2 CALLS TO PCG ROUTINE FOR TIME STEP  14 IN STRESS PERIOD    1
    18 TOTAL ITERATIONS

 MAXIMUM HEAD CHANGE FOR EACH ITERATION (1 INDICATES THE FIRST INNER ITERATION):

    HEAD CHANGE    HEAD CHANGE    HEAD CHANGE    HEAD CHANGE    HEAD CHANGE 
   LAYER,ROW,COL  LAYER,ROW,COL  LAYER,ROW,COL  LAYER,ROW,COL  LAYER,ROW,COL
 ---------------------------------------------------------------------------
  1  0.1097      0 -0.3458E-01  0  0.3440E-01  0  0.7989E-01  0 -0.9805E-01
   (  1, 16,  3)  (  2, 22, 49)  (  2, 22, 49)  (  2, 59, 34)  (  2, 59, 34)
  0  0.6165E-01  0 -0.4401E-01  0  0.1974E-01  0 -0.1124E-01  0 -0.3925E-02
   (  2, 59, 34)  (  2, 59, 34)  (  2, 58, 31)  (  2, 57, 37)  (  2, 58, 31)
  0  0.4250E-02  0  0.2282E-02  0  0.4579E-02  0 -0.5496E-02  0  0.2087E-02
   (  2, 57, 37)  (  2,  3, 32)  (  2, 59, 34)  (  2, 59, 34)  (  2, 59, 34)
  0 -0.1005E-02  0 -0.5012E-03  1  0.2464E-03
   (  2, 59, 34)  (  2,  5, 31)  (  2,  5, 31)

 MAXIMUM RESIDUAL FOR EACH ITERATION (1 INDICATES THE FIRST INNER ITERATION):

    RESIDUAL       RESIDUAL       RESIDUAL       RESIDUAL       RESIDUAL    
   LAYER,ROW,COL  LAYER,ROW,COL  LAYER,ROW,COL  LAYER,ROW,COL  LAYER,ROW,COL
 ---------------------------------------------------------------------------
  1 -0.2994E-03  0  0.8997E-04  0  0.7627E-04  0  0.4522E-04  0  0.4011E-04
   (  1, 16,  3)  (  2, 16,  3)  (  2, 16,  3)  (  2, 16,  3)  (  2, 16,  3)
  0  0.3427E-04  0  0.2786E-04  0  0.1212E-04  0  0.7590E-05  0  0.4925E-05
   (  2, 16,  3)  (  2, 16,  3)  (  2, 15,  4)  (  2, 15,  4)  (  2, 17,  2)
  0  0.3331E-05  0  0.2150E-05  0 -0.1032E-05  0  0.9597E-06  0  0.6134E-06
   (  2, 17,  2)  (  2, 17,  2)  (  1, 17,  2)  (  2, 14,  5)  (  2, 14,  5)
  0  0.4957E-06  0 -0.3882E-06  1  0.5551E-06
   (  2, 14,  5)  (  2, 16,  3)  (  1, 30,  6)



 OUTPUT CONTROL FOR STRESS PERIOD    1   TIME STEP   14
    SAVE HEAD FOR ALL LAYERS
    SAVE DRAWDOWN FOR ALL LAYERS
    SAVE BUDGET
    PRINT BUDGET
 UBDSV2 SAVING "   CONSTANT HEAD" ON UNIT   9 AT TIME STEP 14, STRESS PERIOD   1
 UBDSV1 SAVING "FLOW RIGHT FACE " ON UNIT   9 AT TIME STEP 14, STRESS PERIOD   1
 UBDSV1 SAVING "FLOW FRONT FACE " ON UNIT   9 AT TIME STEP 14, STRESS PERIOD   1
 UBDSV1 SAVING "FLOW LOWER FACE " ON UNIT   9 AT TIME STEP 14, STRESS PERIOD   1
 UBDSV4 SAVING "           WELLS" ON UNIT   9 AT TIME STEP 14, STRESS PERIOD   1
 UBDSV4 SAVING "   RIVER LEAKAGE" ON UNIT   9 AT TIME STEP 14, STRESS PERIOD   1
 UBDSV3 SAVING "              ET" ON UNIT   9 AT TIME STEP 14, STRESS PERIOD   1
 UBDSV4 SAVING " HEAD DEP BOUNDS" ON UNIT   9 AT TIME STEP 14, STRESS PERIOD   1
 UBDSV3 SAVING "        RECHARGE" ON UNIT   9 AT TIME STEP 14, STRESS PERIOD   1
 SOLVING FOR ZETA FOR LAYER     1 ZONE     2
     2 CALLS TO PCG ROUTINE FOR TIME STEP  14 IN STRESS PERIOD    1
     5 TOTAL ITERATIONS

 MAXIMUM HEAD CHANGE FOR EACH ITERATION (1 INDICATES THE FIRST INNER ITERATION):

    HEAD CHANGE    HEAD CHANGE    HEAD CHANGE    HEAD CHANGE    HEAD CHANGE 
   LAYER,ROW,COL  LAYER,ROW,COL  LAYER,ROW,COL  LAYER,ROW,COL  LAYER,ROW,COL
 ---------------------------------------------------------------------------
  1  -5.064      0 -0.3284      0 -0.1025E-01  0 -0.5777E-03  1 -0.1604E-04
   (  1, 16,  3)  (  1, 15,  4)  (  1, 17,  3)  (  1, 16,  4)  (  1, 24,  4)

 MAXIMUM RESIDUAL FOR EACH ITERATION (1 INDICATES THE FIRST INNER ITERATION):

    RESIDUAL       RESIDUAL       RESIDUAL       RESIDUAL       RESIDUAL    
   LAYER,ROW,COL  LAYER,ROW,COL  LAYER,ROW,COL  LAYER,ROW,COL  LAYER,ROW,COL
 ---------------------------------------------------------------------------
  1  0.2732E-04  0  0.1375E-05  0  0.5844E-07  0 -0.2241E-08  1 -0.1540E-09
   (  1, 15,  4)  (  1, 17,  3)  (  1, 16,  4)  (  1, 16,  3)  (  1, 34,  3)


 SOLVING FOR ZETA FOR LAYER     2 ZONE     2
     2 CALLS TO PCG ROUTINE FOR TIME STEP  14 IN STRESS PERIOD    1
     5 TOTAL ITERATIONS

 MAXIMUM HEAD CHANGE FOR EACH ITERATION (1 INDICATES THE FIRST INNER ITERATION):

    HEAD CHANGE    HEAD CHANGE    HEAD CHANGE    HEAD CHANGE    HEAD CHANGE 
   LAYER,ROW,COL  LAYER,ROW,COL  LAYER,ROW,COL  LAYER,ROW,COL  LAYER,ROW,COL
 ---------------------------------------------------------------------------
  1  -3.243      0 -0.2143      0 -0.7286E-02  0 -0.1181E-03  1  0.5211E-05
   (  1, 30,  5)  (  1, 29,  6)  (  1, 30,  5)  (  1, 27,  6)  (  1, 28,  6)

 MAXIMUM RESIDUAL FOR EACH ITERATION (1 INDICATES THE FIRST INNER ITERATION):

    RESIDUAL       RESIDUAL       RESIDUAL       RESIDUAL       RESIDUAL    
   LAYER,ROW,COL  LAYER,ROW,COL  LAYER,ROW,COL  LAYER,ROW,COL  LAYER,ROW,COL
 ---------------------------------------------------------------------------
  1  0.1833E-04  0  0.6828E-06  0 -0.1022E-07  0 -0.6193E-09  1  0.2644E-10
   (  1, 29,  6)  (  1, 30,  5)  (  1, 29,  6)  (  1, 28,  6)  (  1, 26,  6)


 UBUDSV SAVING "      ZETASRF  1" ON UNIT170 AT TIME STEP 14, STRESS PERIOD    1


                      VOLUMETRIC SWI ZONE BUDGET FOR ENTIRE MODEL
                     AT END OF TIME STEP   14 IN STRESS PERIOD   1
                                      ZONE     1
  -----------------------------------------------------------------------------------

        CUMULATIVE VOLUMES      L**3       RATES FOR THIS TIME STEP      L**3/T
        ------------------                 ------------------------

              IN:                                      IN:
              ---                                      ---
             BOUNDARIES =   141375680.0000            BOUNDARIES =           0.1606
          CONSTANT HEAD =           0.0000         CONSTANT HEAD =           0.0000
            ZONE CHANGE =    82099744.0000           ZONE CHANGE =       5.9837E-04
       ZONE CHG TIP/TOE =     3604317.0000      ZONE CHG TIP/TOE =       2.5762E-05
            ZONE MIXING =           0.0000           ZONE MIXING =           0.0000

               TOTAL IN =   227079744.0000              TOTAL IN =           0.1612

             OUT:                                     OUT:
             ----                                     ----
             BOUNDARIES =   117080208.0000            BOUNDARIES =           0.1546
          CONSTANT HEAD =           0.0000         CONSTANT HEAD =           0.0000
            ZONE CHANGE =    18804830.0000           ZONE CHANGE =       6.4468E-03
       ZONE CHG TIP/TOE =     3255819.7500      ZONE CHG TIP/TOE =       2.5322E-05
            ZONE MIXING =           0.0000           ZONE MIXING =           0.0000

              TOTAL OUT =   139140864.0000             TOTAL OUT =           0.1611

               IN - OUT =    87938880.0000              IN - OUT =       1.2164E-04

    PERCENT DISCREPANCY =          48.03     PERCENT DISCREPANCY =           0.08



                      VOLUMETRIC SWI ZONE BUDGET FOR ENTIRE MODEL
                     AT END OF TIME STEP   14 IN STRESS PERIOD   1
                                      ZONE     2
  -----------------------------------------------------------------------------------

        CUMULATIVE VOLUMES      L**3       RATES FOR THIS TIME STEP      L**3/T
        ------------------                 ------------------------

              IN:                                      IN:
              ---                                      ---
             BOUNDARIES =           0.0000            BOUNDARIES =           0.0000
          CONSTANT HEAD =           0.0000         CONSTANT HEAD =           0.0000
            ZONE CHANGE =    15626757.0000           ZONE CHANGE =       6.4383E-03
       ZONE CHG TIP/TOE =     3255819.7500      ZONE CHG TIP/TOE =       2.5322E-05
            ZONE MIXING =           0.0000           ZONE MIXING =           0.0000

               TOTAL IN =    18882576.0000              TOTAL IN =       6.4636E-03

             OUT:                                     OUT:
             ----                                     ----
             BOUNDARIES =    24302710.0000            BOUNDARIES =       5.9765E-03
          CONSTANT HEAD =           0.0000         CONSTANT HEAD =           0.0000
            ZONE CHANGE =     1569453.2500           ZONE CHANGE =       4.6124E-04
       ZONE CHG TIP/TOE =     1298537.6250      ZONE CHG TIP/TOE =       2.5762E-05
            ZONE MIXING =           0.0000           ZONE MIXING =           0.0000

              TOTAL OUT =    27170700.0000             TOTAL OUT =       6.4635E-03

               IN - OUT =    -8288124.0000              IN - OUT =       1.3644E-07

    PERCENT DISCREPANCY =         -35.99     PERCENT DISCREPANCY =           0.00


 HEAD WILL BE SAVED ON UNIT   37 AT END OF TIME STEP   14, STRESS PERIOD    1

 DRAWDOWN WILL BE SAVED ON UNIT   38 AT END OF TIME STEP   14, STRESS PERIOD    1
1
  VOLUMETRIC BUDGET FOR ENTIRE MODEL AT END OF TIME STEP   14, STRESS PERIOD   1
  ------------------------------------------------------------------------------

     CUMULATIVE VOLUMES      L**3       RATES FOR THIS TIME STEP      L**3/T
     ------------------                 ------------------------

           IN:                                      IN:
           ---                                      ---
             STORAGE =           0.0000               STORAGE =           0.0000
       CONSTANT HEAD =           0.0000         CONSTANT HEAD =           0.0000
               WELLS =           0.0000                 WELLS =           0.0000
       RIVER LEAKAGE =    30733082.0000         RIVER LEAKAGE =       3.4963E-02
                  ET =           0.0000                    ET =           0.0000
     HEAD DEP BOUNDS =           0.0000       HEAD DEP BOUNDS =           0.0000
            RECHARGE =   117787608.0000              RECHARGE =           0.1334
          SWIADDTOCH =           0.0000            SWIADDTOCH =           0.0000

            TOTAL IN =   148520688.0000              TOTAL IN =           0.1684

          OUT:                                     OUT:
          ----                                     ----
             STORAGE =           0.0000               STORAGE =           0.0000
       CONSTANT HEAD =           0.0000         CONSTANT HEAD =           0.0000
               WELLS =           0.0000                 WELLS =           0.0000
       RIVER LEAKAGE =     6259290.5000         RIVER LEAKAGE =       6.8286E-03
                  ET =    47570136.0000                    ET =       5.2250E-02
     HEAD DEP BOUNDS =    94698488.0000       HEAD DEP BOUNDS =           0.1093
            RECHARGE =           0.0000              RECHARGE =           0.0000
          SWIADDTOCH =           0.0000            SWIADDTOCH =           0.0000

           TOTAL OUT =   148527920.0000             TOTAL OUT =           0.1684

            IN - OUT =       -7232.0000              IN - OUT =      -6.8098E-06

 PERCENT DISCREPANCY =          -0.00     PERCENT DISCREPANCY =          -0.00






         TIME SUMMARY AT END OF TIME STEP   14 IN STRESS PERIOD    1
                    SECONDS     MINUTES      HOURS       DAYS        YEARS
                    -----------------------------------------------------------
   TIME STEP LENGTH 6.30720E+07 1.05120E+06  17520.      730.00      1.9986    
 STRESS PERIOD TIME 8.83008E+08 1.47168E+07 2.45280E+05  10220.      27.981    
         TOTAL TIME 8.83008E+08 1.47168E+07 2.45280E+05  10220.      27.981    
1
 
 SOLVING FOR HEAD 
     2 CALLS TO PCG ROUTINE FOR TIME STEP  15 IN STRESS PERIOD    1
    18 TOTAL ITERATIONS

 MAXIMUM HEAD CHANGE FOR EACH ITERATION (1 INDICATES THE FIRST INNER ITERATION):

    HEAD CHANGE    HEAD CHANGE    HEAD CHANGE    HEAD CHANGE    HEAD CHANGE 
   LAYER,ROW,COL  LAYER,ROW,COL  LAYER,ROW,COL  LAYER,ROW,COL  LAYER,ROW,COL
 ---------------------------------------------------------------------------
  1  0.7733E-01  0 -0.1416      0  0.2638      0 -0.2619      0  0.1496    
   (  1, 16,  3)  (  2, 59, 34)  (  2, 59, 34)  (  2, 59, 34)  (  2, 59, 34)
  0 -0.1842E-01  0  0.1167E-01  0 -0.9862E-02  0  0.5196E-02  0  0.6394E-02
   (  2, 59, 34)  (  2,  3, 32)  (  2,  3, 32)  (  2,  3, 32)  (  2, 58, 31)
  0 -0.2655E-02  0  0.1383E-01  0 -0.1181E-01  0  0.1392E-02  0  0.1806E-02
   (  2, 59, 34)  (  2, 59, 34)  (  2, 59, 34)  (  2, 59, 34)  (  2, 58, 31)
  0 -0.2381E-02  0  0.4410E-03  1 -0.2200E-03
   (  2, 58, 31)  (  2, 58, 31)  (  2, 22, 49)

 MAXIMUM RESIDUAL FOR EACH ITERATION (1 INDICATES THE FIRST INNER ITERATION):

    RESIDUAL       RESIDUAL       RESIDUAL       RESIDUAL       RESIDUAL    
   LAYER,ROW,COL  LAYER,ROW,COL  LAYER,ROW,COL  LAYER,ROW,COL  LAYER,ROW,COL
 ---------------------------------------------------------------------------
  1 -0.3125E-03  0 -0.2387E-03  0 -0.7739E-04  0 -0.4613E-04  0 -0.4477E-04
   (  1, 16,  3)  (  1, 16,  3)  (  1, 16,  3)  (  2, 15,  3)  (  2, 15,  3)
  0 -0.3868E-04  0 -0.2297E-04  0 -0.1855E-04  0 -0.1093E-04  0 -0.7597E-05
   (  2, 15,  3)  (  2, 15,  3)  (  2, 15,  3)  (  1, 15,  4)  (  1, 15,  4)
  0 -0.4265E-05  0 -0.3724E-05  0 -0.2789E-05  0 -0.2261E-05  0 -0.1322E-05
   (  1, 15,  4)  (  1, 17,  2)  (  1, 17,  2)  (  1, 17,  2)  (  1, 17,  2)
  0 -0.8704E-06  0 -0.5243E-06  1 -0.5100E-06
   (  1, 17,  2)  (  1, 17,  2)  (  1, 17,  2)



 OUTPUT CONTROL FOR STRESS PERIOD    1   TIME STEP   15
    SAVE HEAD FOR ALL LAYERS
    SAVE DRAWDOWN FOR ALL LAYERS
    SAVE BUDGET
    PRINT BUDGET
 UBDSV2 SAVING "   CONSTANT HEAD" ON UNIT   9 AT TIME STEP 15, STRESS PERIOD   1
 UBDSV1 SAVING "FLOW RIGHT FACE " ON UNIT   9 AT TIME STEP 15, STRESS PERIOD   1
 UBDSV1 SAVING "FLOW FRONT FACE " ON UNIT   9 AT TIME STEP 15, STRESS PERIOD   1
 UBDSV1 SAVING "FLOW LOWER FACE " ON UNIT   9 AT TIME STEP 15, STRESS PERIOD   1
 UBDSV4 SAVING "           WELLS" ON UNIT   9 AT TIME STEP 15, STRESS PERIOD   1
 UBDSV4 SAVING "   RIVER LEAKAGE" ON UNIT   9 AT TIME STEP 15, STRESS PERIOD   1
 UBDSV3 SAVING "              ET" ON UNIT   9 AT TIME STEP 15, STRESS PERIOD   1
 UBDSV4 SAVING " HEAD DEP BOUNDS" ON UNIT   9 AT TIME STEP 15, STRESS PERIOD   1
 UBDSV3 SAVING "        RECHARGE" ON UNIT   9 AT TIME STEP 15, STRESS PERIOD   1
 SOLVING FOR ZETA FOR LAYER     1 ZONE     2
     2 CALLS TO PCG ROUTINE FOR TIME STEP  15 IN STRESS PERIOD    1
     5 TOTAL ITERATIONS

 MAXIMUM HEAD CHANGE FOR EACH ITERATION (1 INDICATES THE FIRST INNER ITERATION):

    HEAD CHANGE    HEAD CHANGE    HEAD CHANGE    HEAD CHANGE    HEAD CHANGE 
   LAYER,ROW,COL  LAYER,ROW,COL  LAYER,ROW,COL  LAYER,ROW,COL  LAYER,ROW,COL
 ---------------------------------------------------------------------------
  1  -4.393      0 -0.2514      0 -0.7168E-02  0 -0.3477E-03  1  0.1026E-04
   (  1, 16,  3)  (  1, 15,  4)  (  1, 17,  3)  (  1, 16,  4)  (  1, 33,  4)

 MAXIMUM RESIDUAL FOR EACH ITERATION (1 INDICATES THE FIRST INNER ITERATION):

    RESIDUAL       RESIDUAL       RESIDUAL       RESIDUAL       RESIDUAL    
   LAYER,ROW,COL  LAYER,ROW,COL  LAYER,ROW,COL  LAYER,ROW,COL  LAYER,ROW,COL
 ---------------------------------------------------------------------------
  1  0.2091E-04  0  0.9053E-06  0  0.3533E-07  0 -0.1178E-08  1 -0.9607E-10
   (  1, 15,  4)  (  1, 17,  3)  (  1, 16,  4)  (  1, 33,  4)  (  1, 34,  3)


 SOLVING FOR ZETA FOR LAYER     2 ZONE     2
     2 CALLS TO PCG ROUTINE FOR TIME STEP  15 IN STRESS PERIOD    1
     5 TOTAL ITERATIONS

 MAXIMUM HEAD CHANGE FOR EACH ITERATION (1 INDICATES THE FIRST INNER ITERATION):

    HEAD CHANGE    HEAD CHANGE    HEAD CHANGE    HEAD CHANGE    HEAD CHANGE 
   LAYER,ROW,COL  LAYER,ROW,COL  LAYER,ROW,COL  LAYER,ROW,COL  LAYER,ROW,COL
 ---------------------------------------------------------------------------
  1  -2.134      0 -0.1258      0 -0.5187E-02  0 -0.9161E-04  1  0.2690E-05
   (  1, 30,  5)  (  1, 29,  6)  (  1, 30,  5)  (  1, 27,  6)  (  1, 27,  6)

 MAXIMUM RESIDUAL FOR EACH ITERATION (1 INDICATES THE FIRST INNER ITERATION):

    RESIDUAL       RESIDUAL       RESIDUAL       RESIDUAL       RESIDUAL    
   LAYER,ROW,COL  LAYER,ROW,COL  LAYER,ROW,COL  LAYER,ROW,COL  LAYER,ROW,COL
 ---------------------------------------------------------------------------
  1  0.1028E-04  0  0.4769E-06  0  0.6903E-08  0  0.3650E-09  1 -0.9548E-11
   (  1, 29,  6)  (  1, 30,  5)  (  1, 27,  6)  (  1, 28,  5)  (  1, 29,  5)


 UBUDSV SAVING "      ZETASRF  1" ON UNIT170 AT TIME STEP 15, STRESS PERIOD    1


                      VOLUMETRIC SWI ZONE BUDGET FOR ENTIRE MODEL
                     AT END OF TIME STEP   15 IN STRESS PERIOD   1
                                      ZONE     1
  -----------------------------------------------------------------------------------

        CUMULATIVE VOLUMES      L**3       RATES FOR THIS TIME STEP      L**3/T
        ------------------                 ------------------------

              IN:                                      IN:
              ---                                      ---
             BOUNDARIES =   151502688.0000            BOUNDARIES =           0.1606
          CONSTANT HEAD =           0.0000         CONSTANT HEAD =           0.0000
            ZONE CHANGE =    82120272.0000           ZONE CHANGE =       3.2553E-04
       ZONE CHG TIP/TOE =     3604905.2500      ZONE CHG TIP/TOE =       9.3263E-06
            ZONE MIXING =           0.0000           ZONE MIXING =           0.0000

               TOTAL IN =   237227872.0000              TOTAL IN =           0.1609

             OUT:                                     OUT:
             ----                                     ----
             BOUNDARIES =   126871688.0000            BOUNDARIES =           0.1552
          CONSTANT HEAD =           0.0000         CONSTANT HEAD =           0.0000
            ZONE CHANGE =    19159642.0000           ZONE CHANGE =       5.6255E-03
       ZONE CHG TIP/TOE =     3256996.2500      ZONE CHG TIP/TOE =       1.8653E-05
            ZONE MIXING =           0.0000           ZONE MIXING =           0.0000

              TOTAL OUT =   149288320.0000             TOTAL OUT =           0.1609

               IN - OUT =    87939552.0000              IN - OUT =       1.0490E-05

    PERCENT DISCREPANCY =          45.50     PERCENT DISCREPANCY =           0.01



                      VOLUMETRIC SWI ZONE BUDGET FOR ENTIRE MODEL
                     AT END OF TIME STEP   15 IN STRESS PERIOD   1
                                      ZONE     2
  -----------------------------------------------------------------------------------

        CUMULATIVE VOLUMES      L**3       RATES FOR THIS TIME STEP      L**3/T
        ------------------                 ------------------------

              IN:                                      IN:
              ---                                      ---
             BOUNDARIES =           0.0000            BOUNDARIES =           0.0000
          CONSTANT HEAD =           0.0000         CONSTANT HEAD =           0.0000
            ZONE CHANGE =    15979935.0000           ZONE CHANGE =       5.5996E-03
       ZONE CHG TIP/TOE =     3256996.2500      ZONE CHG TIP/TOE =       1.8653E-05
            ZONE MIXING =           0.0000           ZONE MIXING =           0.0000

               TOTAL IN =    19236932.0000              TOTAL IN =       5.6183E-03

             OUT:                                     OUT:
             ----                                     ----
             BOUNDARIES =    24638460.0000            BOUNDARIES =       5.3233E-03
          CONSTANT HEAD =           0.0000         CONSTANT HEAD =           0.0000
            ZONE CHANGE =     1587434.2500           ZONE CHANGE =       2.8509E-04
       ZONE CHG TIP/TOE =     1298537.6250      ZONE CHG TIP/TOE =           0.0000
            ZONE MIXING =           0.0000           ZONE MIXING =           0.0000

              TOTAL OUT =    27524432.0000             TOTAL OUT =       5.6084E-03

               IN - OUT =    -8287500.0000              IN - OUT =       9.8757E-06

    PERCENT DISCREPANCY =         -35.45     PERCENT DISCREPANCY =           0.18


 HEAD WILL BE SAVED ON UNIT   37 AT END OF TIME STEP   15, STRESS PERIOD    1

 DRAWDOWN WILL BE SAVED ON UNIT   38 AT END OF TIME STEP   15, STRESS PERIOD    1
1
  VOLUMETRIC BUDGET FOR ENTIRE MODEL AT END OF TIME STEP   15, STRESS PERIOD   1
  ------------------------------------------------------------------------------

     CUMULATIVE VOLUMES      L**3       RATES FOR THIS TIME STEP      L**3/T
     ------------------                 ------------------------

           IN:                                      IN:
           ---                                      ---
             STORAGE =           0.0000               STORAGE =           0.0000
       CONSTANT HEAD =           0.0000         CONSTANT HEAD =           0.0000
               WELLS =           0.0000                 WELLS =           0.0000
       RIVER LEAKAGE =    32938728.0000         RIVER LEAKAGE =       3.4970E-02
                  ET =           0.0000                    ET =           0.0000
     HEAD DEP BOUNDS =           0.0000       HEAD DEP BOUNDS =           0.0000
            RECHARGE =   126201008.0000              RECHARGE =           0.1334
          SWIADDTOCH =           0.0000            SWIADDTOCH =           0.0000

            TOTAL IN =   159139744.0000              TOTAL IN =           0.1684

          OUT:                                     OUT:
          ----                                     ----
             STORAGE =           0.0000               STORAGE =           0.0000
       CONSTANT HEAD =           0.0000         CONSTANT HEAD =           0.0000
               WELLS =           0.0000                 WELLS =           0.0000
       RIVER LEAKAGE =     6689432.5000         RIVER LEAKAGE =       6.8199E-03
                  ET =    50866376.0000                    ET =       5.2262E-02
     HEAD DEP BOUNDS =   101591376.0000       HEAD DEP BOUNDS =           0.1093
            RECHARGE =           0.0000              RECHARGE =           0.0000
          SWIADDTOCH =           0.0000            SWIADDTOCH =           0.0000

           TOTAL OUT =   159147184.0000             TOTAL OUT =           0.1684

            IN - OUT =       -7440.0000              IN - OUT =      -3.4869E-06

 PERCENT DISCREPANCY =          -0.00     PERCENT DISCREPANCY =          -0.00






         TIME SUMMARY AT END OF TIME STEP   15 IN STRESS PERIOD    1
                    SECONDS     MINUTES      HOURS       DAYS        YEARS
                    -----------------------------------------------------------
   TIME STEP LENGTH 6.30720E+07 1.05120E+06  17520.      730.00      1.9986    
 STRESS PERIOD TIME 9.46080E+08 1.57680E+07 2.62800E+05  10950.      29.979    
         TOTAL TIME 9.46080E+08 1.57680E+07 2.62800E+05  10950.      29.979    
1
 
 SOLVING FOR HEAD 
     2 CALLS TO PCG ROUTINE FOR TIME STEP  16 IN STRESS PERIOD    1
    16 TOTAL ITERATIONS

 MAXIMUM HEAD CHANGE FOR EACH ITERATION (1 INDICATES THE FIRST INNER ITERATION):

    HEAD CHANGE    HEAD CHANGE    HEAD CHANGE    HEAD CHANGE    HEAD CHANGE 
   LAYER,ROW,COL  LAYER,ROW,COL  LAYER,ROW,COL  LAYER,ROW,COL  LAYER,ROW,COL
 ---------------------------------------------------------------------------
  1  0.6068E-01  0 -0.2843E-01  0  0.2829E-01  0 -0.8961E-01  0  0.1019    
   (  1, 16,  3)  (  2, 22, 49)  (  2, 22, 49)  (  2, 59, 34)  (  2, 59, 34)
  0 -0.3069E-01  0  0.9258E-02  0  0.4862E-02  0 -0.4614E-02  0 -0.3093E-02
   (  2, 59, 34)  (  2, 59, 34)  (  2, 58, 31)  (  2, 58, 31)  (  2,  3, 32)
  0  0.1682E-02  0 -0.7039E-02  0  0.7682E-02  0 -0.1211E-02  0  0.4329E-03
   (  2,  3, 32)  (  2, 59, 34)  (  2, 59, 34)  (  2, 58, 31)  (  2, 58, 31)
  1  0.2329E-03
   (  2, 19, 52)

 MAXIMUM RESIDUAL FOR EACH ITERATION (1 INDICATES THE FIRST INNER ITERATION):

    RESIDUAL       RESIDUAL       RESIDUAL       RESIDUAL       RESIDUAL    
   LAYER,ROW,COL  LAYER,ROW,COL  LAYER,ROW,COL  LAYER,ROW,COL  LAYER,ROW,COL
 ---------------------------------------------------------------------------
  1 -0.2722E-03  0 -0.5527E-04  0 -0.3953E-04  0 -0.3533E-04  0 -0.2503E-04
   (  1, 16,  3)  (  1, 16,  3)  (  2, 15,  3)  (  2, 15,  3)  (  2, 15,  3)
  0 -0.2369E-04  0 -0.1482E-04  0 -0.8091E-05  0 -0.5297E-05  0 -0.3608E-05
   (  2, 15,  3)  (  2, 15,  3)  (  1, 15,  4)  (  1, 15,  4)  (  1, 17,  2)
  0 -0.2857E-05  0 -0.1939E-05  0 -0.1642E-05  0 -0.9194E-06  0 -0.7456E-06
   (  1, 17,  2)  (  1, 17,  2)  (  1, 17,  2)  (  1, 17,  2)  (  1, 17,  2)
  1 -0.7362E-06
   (  1, 17,  2)



 OUTPUT CONTROL FOR STRESS PERIOD    1   TIME STEP   16
    SAVE HEAD FOR ALL LAYERS
    SAVE DRAWDOWN FOR ALL LAYERS
    SAVE BUDGET
    PRINT BUDGET
 UBDSV2 SAVING "   CONSTANT HEAD" ON UNIT   9 AT TIME STEP 16, STRESS PERIOD   1
 UBDSV1 SAVING "FLOW RIGHT FACE " ON UNIT   9 AT TIME STEP 16, STRESS PERIOD   1
 UBDSV1 SAVING "FLOW FRONT FACE " ON UNIT   9 AT TIME STEP 16, STRESS PERIOD   1
 UBDSV1 SAVING "FLOW LOWER FACE " ON UNIT   9 AT TIME STEP 16, STRESS PERIOD   1
 UBDSV4 SAVING "           WELLS" ON UNIT   9 AT TIME STEP 16, STRESS PERIOD   1
 UBDSV4 SAVING "   RIVER LEAKAGE" ON UNIT   9 AT TIME STEP 16, STRESS PERIOD   1
 UBDSV3 SAVING "              ET" ON UNIT   9 AT TIME STEP 16, STRESS PERIOD   1
 UBDSV4 SAVING " HEAD DEP BOUNDS" ON UNIT   9 AT TIME STEP 16, STRESS PERIOD   1
 UBDSV3 SAVING "        RECHARGE" ON UNIT   9 AT TIME STEP 16, STRESS PERIOD   1
 SOLVING FOR ZETA FOR LAYER     1 ZONE     2
     2 CALLS TO PCG ROUTINE FOR TIME STEP  16 IN STRESS PERIOD    1
     5 TOTAL ITERATIONS

 MAXIMUM HEAD CHANGE FOR EACH ITERATION (1 INDICATES THE FIRST INNER ITERATION):

    HEAD CHANGE    HEAD CHANGE    HEAD CHANGE    HEAD CHANGE    HEAD CHANGE 
   LAYER,ROW,COL  LAYER,ROW,COL  LAYER,ROW,COL  LAYER,ROW,COL  LAYER,ROW,COL
 ---------------------------------------------------------------------------
  1  -3.691      0 -0.1817      0 -0.5731E-02  0  0.2712E-03  1  0.6653E-05
   (  1, 27,  4)  (  1, 15,  4)  (  1, 34,  3)  (  1, 26,  5)  (  1, 33,  4)

 MAXIMUM RESIDUAL FOR EACH ITERATION (1 INDICATES THE FIRST INNER ITERATION):

    RESIDUAL       RESIDUAL       RESIDUAL       RESIDUAL       RESIDUAL    
   LAYER,ROW,COL  LAYER,ROW,COL  LAYER,ROW,COL  LAYER,ROW,COL  LAYER,ROW,COL
 ---------------------------------------------------------------------------
  1  0.1497E-04  0  0.6703E-06  0  0.2546E-07  0 -0.8355E-09  1 -0.5397E-10
   (  1, 15,  4)  (  1, 34,  3)  (  1, 33,  4)  (  1, 16,  3)  (  1, 34,  3)


 SOLVING FOR ZETA FOR LAYER     2 ZONE     2
     2 CALLS TO PCG ROUTINE FOR TIME STEP  16 IN STRESS PERIOD    1
     5 TOTAL ITERATIONS

 MAXIMUM HEAD CHANGE FOR EACH ITERATION (1 INDICATES THE FIRST INNER ITERATION):

    HEAD CHANGE    HEAD CHANGE    HEAD CHANGE    HEAD CHANGE    HEAD CHANGE 
   LAYER,ROW,COL  LAYER,ROW,COL  LAYER,ROW,COL  LAYER,ROW,COL  LAYER,ROW,COL
 ---------------------------------------------------------------------------
  1  -1.625      0 -0.9608E-01  0 -0.3961E-02  0 -0.6948E-04  1 -0.2247E-05
   (  1, 30,  5)  (  1, 28,  6)  (  1, 29,  5)  (  1, 26,  6)  (  1, 23,  6)

 MAXIMUM RESIDUAL FOR EACH ITERATION (1 INDICATES THE FIRST INNER ITERATION):

    RESIDUAL       RESIDUAL       RESIDUAL       RESIDUAL       RESIDUAL    
   LAYER,ROW,COL  LAYER,ROW,COL  LAYER,ROW,COL  LAYER,ROW,COL  LAYER,ROW,COL
 ---------------------------------------------------------------------------
  1  0.7822E-05  0  0.4309E-06  0  0.5903E-08  0 -0.2349E-09  1  0.8737E-11
   (  1, 28,  6)  (  1, 29,  5)  (  1, 27,  5)  (  1, 24,  5)  (  1, 26,  5)


 UBUDSV SAVING "      ZETASRF  1" ON UNIT170 AT TIME STEP 16, STRESS PERIOD    1


                      VOLUMETRIC SWI ZONE BUDGET FOR ENTIRE MODEL
                     AT END OF TIME STEP   16 IN STRESS PERIOD   1
                                      ZONE     1
  -----------------------------------------------------------------------------------

        CUMULATIVE VOLUMES      L**3       RATES FOR THIS TIME STEP      L**3/T
        ------------------                 ------------------------

              IN:                                      IN:
              ---                                      ---
             BOUNDARIES =   161630288.0000            BOUNDARIES =           0.1606
          CONSTANT HEAD =           0.0000         CONSTANT HEAD =           0.0000
            ZONE CHANGE =    82136944.0000           ZONE CHANGE =       2.6432E-04
       ZONE CHG TIP/TOE =     3614417.2500      ZONE CHG TIP/TOE =       1.5081E-04
            ZONE MIXING =           0.0000           ZONE MIXING =           0.0000

               TOTAL IN =   247381648.0000              TOTAL IN =           0.1610

             OUT:                                     OUT:
             ----                                     ----
             BOUNDARIES =   136699504.0000            BOUNDARIES =           0.1558
          CONSTANT HEAD =           0.0000         CONSTANT HEAD =           0.0000
            ZONE CHANGE =    19475722.0000           ZONE CHANGE =       5.0114E-03
       ZONE CHG TIP/TOE =     3267274.2500      ZONE CHG TIP/TOE =       1.6296E-04
            ZONE MIXING =           0.0000           ZONE MIXING =           0.0000

              TOTAL OUT =   159442496.0000             TOTAL OUT =           0.1610

               IN - OUT =    87939152.0000              IN - OUT =      -6.2436E-06

    PERCENT DISCREPANCY =          43.23     PERCENT DISCREPANCY =          -0.00



                      VOLUMETRIC SWI ZONE BUDGET FOR ENTIRE MODEL
                     AT END OF TIME STEP   16 IN STRESS PERIOD   1
                                      ZONE     2
  -----------------------------------------------------------------------------------

        CUMULATIVE VOLUMES      L**3       RATES FOR THIS TIME STEP      L**3/T
        ------------------                 ------------------------

              IN:                                      IN:
              ---                                      ---
             BOUNDARIES =           0.0000            BOUNDARIES =           0.0000
          CONSTANT HEAD =           0.0000         CONSTANT HEAD =           0.0000
            ZONE CHANGE =    16293510.0000           ZONE CHANGE =       4.9717E-03
       ZONE CHG TIP/TOE =     3267274.2500      ZONE CHG TIP/TOE =       1.6296E-04
            ZONE MIXING =           0.0000           ZONE MIXING =           0.0000

               TOTAL IN =    19560784.0000              TOTAL IN =       5.1347E-03

             OUT:                                     OUT:
             ----                                     ----
             BOUNDARIES =    24938430.0000            BOUNDARIES =       4.7560E-03
          CONSTANT HEAD =           0.0000         CONSTANT HEAD =           0.0000
            ZONE CHANGE =     1602526.7500           ZONE CHANGE =       2.3929E-04
       ZONE CHG TIP/TOE =     1306537.6250      ZONE CHG TIP/TOE =       1.2684E-04
            ZONE MIXING =           0.0000           ZONE MIXING =           0.0000

              TOTAL OUT =    27847494.0000             TOTAL OUT =       5.1221E-03

               IN - OUT =    -8286710.0000              IN - OUT =       1.2539E-05

    PERCENT DISCREPANCY =         -34.96     PERCENT DISCREPANCY =           0.24


 HEAD WILL BE SAVED ON UNIT   37 AT END OF TIME STEP   16, STRESS PERIOD    1

 DRAWDOWN WILL BE SAVED ON UNIT   38 AT END OF TIME STEP   16, STRESS PERIOD    1
1
  VOLUMETRIC BUDGET FOR ENTIRE MODEL AT END OF TIME STEP   16, STRESS PERIOD   1
  ------------------------------------------------------------------------------

     CUMULATIVE VOLUMES      L**3       RATES FOR THIS TIME STEP      L**3/T
     ------------------                 ------------------------

           IN:                                      IN:
           ---                                      ---
             STORAGE =           0.0000               STORAGE =           0.0000
       CONSTANT HEAD =           0.0000         CONSTANT HEAD =           0.0000
               WELLS =           0.0000                 WELLS =           0.0000
       RIVER LEAKAGE =    35144772.0000         RIVER LEAKAGE =       3.4977E-02
                  ET =           0.0000                    ET =           0.0000
     HEAD DEP BOUNDS =           0.0000       HEAD DEP BOUNDS =           0.0000
            RECHARGE =   134614416.0000              RECHARGE =           0.1334
          SWIADDTOCH =           0.0000            SWIADDTOCH =           0.0000

            TOTAL IN =   169759184.0000              TOTAL IN =           0.1684

          OUT:                                     OUT:
          ----                                     ----
             STORAGE =           0.0000               STORAGE =           0.0000
       CONSTANT HEAD =           0.0000         CONSTANT HEAD =           0.0000
               WELLS =           0.0000                 WELLS =           0.0000
       RIVER LEAKAGE =     7119180.0000         RIVER LEAKAGE =       6.8136E-03
                  ET =    54163536.0000                    ET =       5.2276E-02
     HEAD DEP BOUNDS =   108484104.0000       HEAD DEP BOUNDS =           0.1093
            RECHARGE =           0.0000              RECHARGE =           0.0000
          SWIADDTOCH =           0.0000            SWIADDTOCH =           0.0000

           TOTAL OUT =   169766816.0000             TOTAL OUT =           0.1684

            IN - OUT =       -7632.0000              IN - OUT =      -2.9653E-06

 PERCENT DISCREPANCY =          -0.00     PERCENT DISCREPANCY =          -0.00






         TIME SUMMARY AT END OF TIME STEP   16 IN STRESS PERIOD    1
                    SECONDS     MINUTES      HOURS       DAYS        YEARS
                    -----------------------------------------------------------
   TIME STEP LENGTH 6.30720E+07 1.05120E+06  17520.      730.00      1.9986    
 STRESS PERIOD TIME 1.00915E+09 1.68192E+07 2.80320E+05  11680.      31.978    
         TOTAL TIME 1.00915E+09 1.68192E+07 2.80320E+05  11680.      31.978    
1
 
 SOLVING FOR HEAD 
     2 CALLS TO PCG ROUTINE FOR TIME STEP  17 IN STRESS PERIOD    1
    18 TOTAL ITERATIONS

 MAXIMUM HEAD CHANGE FOR EACH ITERATION (1 INDICATES THE FIRST INNER ITERATION):

    HEAD CHANGE    HEAD CHANGE    HEAD CHANGE    HEAD CHANGE    HEAD CHANGE 
   LAYER,ROW,COL  LAYER,ROW,COL  LAYER,ROW,COL  LAYER,ROW,COL  LAYER,ROW,COL
 ---------------------------------------------------------------------------
  1  0.1051      0  0.6501E-01  0 -0.6163E-01  0 -0.1465      0  0.1352    
   (  1, 32,  3)  (  2, 19, 52)  (  2, 19, 52)  (  2, 59, 34)  (  2, 59, 34)
  0 -0.1334E-01  0 -0.1401E-01  0 -0.7208E-02  0  0.8032E-02  0 -0.3348E-02
   (  2, 58, 31)  (  2, 58, 31)  (  2,  3, 32)  (  2, 58, 31)  (  2,  3, 32)
  0 -0.5810E-02  0 -0.8246E-02  0  0.9356E-02  0 -0.5738E-02  0  0.1423E-02
   (  2, 58, 31)  (  2, 59, 34)  (  2, 59, 34)  (  2, 59, 34)  (  2, 59, 34)
  0 -0.1395E-02  0  0.8118E-03  1 -0.7327E-03
   (  2, 58, 31)  (  2, 58, 31)  (  2, 58, 31)

 MAXIMUM RESIDUAL FOR EACH ITERATION (1 INDICATES THE FIRST INNER ITERATION):

    RESIDUAL       RESIDUAL       RESIDUAL       RESIDUAL       RESIDUAL    
   LAYER,ROW,COL  LAYER,ROW,COL  LAYER,ROW,COL  LAYER,ROW,COL  LAYER,ROW,COL
 ---------------------------------------------------------------------------
  1 -0.4088E-03  0 -0.2329E-03  0  0.8351E-04  0  0.7411E-04  0  0.5248E-04
   (  1, 32,  3)  (  1, 32,  3)  (  2, 32,  3)  (  2, 32,  3)  (  2, 32,  3)
  0  0.4281E-04  0  0.3171E-04  0  0.1727E-04  0  0.1188E-04  0  0.7152E-05
   (  2, 32,  3)  (  2, 32,  3)  (  2, 32,  3)  (  2, 31,  4)  (  2, 31,  4)
  0  0.4359E-05  0  0.4052E-05  0  0.2992E-05  0  0.2708E-05  0 -0.1408E-05
   (  1, 33,  3)  (  1, 33,  3)  (  1, 33,  3)  (  1, 33,  3)  (  2, 30,  4)
  0 -0.9339E-06  0 -0.5228E-06  1 -0.3094E-05
   (  2, 30,  4)  (  2, 32,  3)  (  1, 28, 10)



 OUTPUT CONTROL FOR STRESS PERIOD    1   TIME STEP   17
    SAVE HEAD FOR ALL LAYERS
    SAVE DRAWDOWN FOR ALL LAYERS
    SAVE BUDGET
    PRINT BUDGET
 UBDSV2 SAVING "   CONSTANT HEAD" ON UNIT   9 AT TIME STEP 17, STRESS PERIOD   1
 UBDSV1 SAVING "FLOW RIGHT FACE " ON UNIT   9 AT TIME STEP 17, STRESS PERIOD   1
 UBDSV1 SAVING "FLOW FRONT FACE " ON UNIT   9 AT TIME STEP 17, STRESS PERIOD   1
 UBDSV1 SAVING "FLOW LOWER FACE " ON UNIT   9 AT TIME STEP 17, STRESS PERIOD   1
 UBDSV4 SAVING "           WELLS" ON UNIT   9 AT TIME STEP 17, STRESS PERIOD   1
 UBDSV4 SAVING "   RIVER LEAKAGE" ON UNIT   9 AT TIME STEP 17, STRESS PERIOD   1
 UBDSV3 SAVING "              ET" ON UNIT   9 AT TIME STEP 17, STRESS PERIOD   1
 UBDSV4 SAVING " HEAD DEP BOUNDS" ON UNIT   9 AT TIME STEP 17, STRESS PERIOD   1
 UBDSV3 SAVING "        RECHARGE" ON UNIT   9 AT TIME STEP 17, STRESS PERIOD   1
 SOLVING FOR ZETA FOR LAYER     1 ZONE     2
     2 CALLS TO PCG ROUTINE FOR TIME STEP  17 IN STRESS PERIOD    1
     5 TOTAL ITERATIONS

 MAXIMUM HEAD CHANGE FOR EACH ITERATION (1 INDICATES THE FIRST INNER ITERATION):

    HEAD CHANGE    HEAD CHANGE    HEAD CHANGE    HEAD CHANGE    HEAD CHANGE 
   LAYER,ROW,COL  LAYER,ROW,COL  LAYER,ROW,COL  LAYER,ROW,COL  LAYER,ROW,COL
 ---------------------------------------------------------------------------
  1  -3.942      0 -0.1417      0 -0.7343E-02  0  0.3188E-03  1  0.1060E-04
   (  1, 32,  3)  (  1, 32,  4)  (  1, 15,  4)  (  1, 15,  4)  (  1, 15,  4)

 MAXIMUM RESIDUAL FOR EACH ITERATION (1 INDICATES THE FIRST INNER ITERATION):

    RESIDUAL       RESIDUAL       RESIDUAL       RESIDUAL       RESIDUAL    
   LAYER,ROW,COL  LAYER,ROW,COL  LAYER,ROW,COL  LAYER,ROW,COL  LAYER,ROW,COL
 ---------------------------------------------------------------------------
  1 -0.2058E-04  0  0.6131E-06  0 -0.2902E-07  0 -0.9264E-09  1 -0.3971E-10
   (  1, 33,  3)  (  1, 33,  3)  (  1, 15,  4)  (  1, 15,  4)  (  1, 16,  3)


 SOLVING FOR ZETA FOR LAYER     2 ZONE     2
     2 CALLS TO PCG ROUTINE FOR TIME STEP  17 IN STRESS PERIOD    1
     5 TOTAL ITERATIONS

 MAXIMUM HEAD CHANGE FOR EACH ITERATION (1 INDICATES THE FIRST INNER ITERATION):

    HEAD CHANGE    HEAD CHANGE    HEAD CHANGE    HEAD CHANGE    HEAD CHANGE 
   LAYER,ROW,COL  LAYER,ROW,COL  LAYER,ROW,COL  LAYER,ROW,COL  LAYER,ROW,COL
 ---------------------------------------------------------------------------
  1  -1.452      0 -0.8579E-01  0 -0.3465E-02  0  0.6805E-04  1 -0.2472E-05
   (  1, 29,  5)  (  1, 28,  6)  (  1, 29,  5)  (  1, 23,  6)  (  1, 23,  6)

 MAXIMUM RESIDUAL FOR EACH ITERATION (1 INDICATES THE FIRST INNER ITERATION):

    RESIDUAL       RESIDUAL       RESIDUAL       RESIDUAL       RESIDUAL    
   LAYER,ROW,COL  LAYER,ROW,COL  LAYER,ROW,COL  LAYER,ROW,COL  LAYER,ROW,COL
 ---------------------------------------------------------------------------
  1  0.7003E-05  0  0.3497E-06  0 -0.5634E-08  0 -0.2835E-09  1  0.8111E-11
   (  1, 28,  6)  (  1, 29,  5)  (  1, 23,  6)  (  1, 24,  5)  (  1, 25,  6)


 UBUDSV SAVING "      ZETASRF  1" ON UNIT170 AT TIME STEP 17, STRESS PERIOD    1


                      VOLUMETRIC SWI ZONE BUDGET FOR ENTIRE MODEL
                     AT END OF TIME STEP   17 IN STRESS PERIOD   1
                                      ZONE     1
  -----------------------------------------------------------------------------------

        CUMULATIVE VOLUMES      L**3       RATES FOR THIS TIME STEP      L**3/T
        ------------------                 ------------------------

              IN:                                      IN:
              ---                                      ---
             BOUNDARIES =   171758544.0000            BOUNDARIES =           0.1606
          CONSTANT HEAD =           0.0000         CONSTANT HEAD =           0.0000
            ZONE CHANGE =    82164088.0000           ZONE CHANGE =       4.3039E-04
       ZONE CHG TIP/TOE =     3631136.5000      ZONE CHG TIP/TOE =       2.6508E-04
            ZONE MIXING =           0.0000           ZONE MIXING =           0.0000

               TOTAL IN =   257553760.0000              TOTAL IN =           0.1613

             OUT:                                     OUT:
             ----                                     ----
             BOUNDARIES =   146571632.0000            BOUNDARIES =           0.1565
          CONSTANT HEAD =           0.0000         CONSTANT HEAD =           0.0000
            ZONE CHANGE =    19755890.0000           ZONE CHANGE =       4.4420E-03
       ZONE CHG TIP/TOE =     3283993.5000      ZONE CHG TIP/TOE =       2.6508E-04
            ZONE MIXING =           0.0000           ZONE MIXING =           0.0000

              TOTAL OUT =   169611520.0000             TOTAL OUT =           0.1612

               IN - OUT =    87942240.0000              IN - OUT =       4.9159E-05

    PERCENT DISCREPANCY =          41.17     PERCENT DISCREPANCY =           0.03



                      VOLUMETRIC SWI ZONE BUDGET FOR ENTIRE MODEL
                     AT END OF TIME STEP   17 IN STRESS PERIOD   1
                                      ZONE     2
  -----------------------------------------------------------------------------------

        CUMULATIVE VOLUMES      L**3       RATES FOR THIS TIME STEP      L**3/T
        ------------------                 ------------------------

              IN:                                      IN:
              ---                                      ---
             BOUNDARIES =           0.0000            BOUNDARIES =           0.0000
          CONSTANT HEAD =           0.0000         CONSTANT HEAD =           0.0000
            ZONE CHANGE =    16572142.0000           ZONE CHANGE =       4.4177E-03
       ZONE CHG TIP/TOE =     3283993.5000      ZONE CHG TIP/TOE =       2.6508E-04
            ZONE MIXING =           0.0000           ZONE MIXING =           0.0000

               TOTAL IN =    19856136.0000              TOTAL IN =       4.6828E-03

             OUT:                                     OUT:
             ----                                     ----
             BOUNDARIES =    25194582.0000            BOUNDARIES =       4.0613E-03
          CONSTANT HEAD =           0.0000         CONSTANT HEAD =           0.0000
            ZONE CHANGE =     1625666.7500           ZONE CHANGE =       3.6688E-04
       ZONE CHG TIP/TOE =     1322537.6250      ZONE CHG TIP/TOE =       2.5368E-04
            ZONE MIXING =           0.0000           ZONE MIXING =           0.0000

              TOTAL OUT =    28142786.0000             TOTAL OUT =       4.6818E-03

               IN - OUT =    -8286650.0000              IN - OUT =       9.3272E-07

    PERCENT DISCREPANCY =         -34.53     PERCENT DISCREPANCY =           0.02


 HEAD WILL BE SAVED ON UNIT   37 AT END OF TIME STEP   17, STRESS PERIOD    1

 DRAWDOWN WILL BE SAVED ON UNIT   38 AT END OF TIME STEP   17, STRESS PERIOD    1
1
  VOLUMETRIC BUDGET FOR ENTIRE MODEL AT END OF TIME STEP   17, STRESS PERIOD   1
  ------------------------------------------------------------------------------

     CUMULATIVE VOLUMES      L**3       RATES FOR THIS TIME STEP      L**3/T
     ------------------                 ------------------------

           IN:                                      IN:
           ---                                      ---
             STORAGE =           0.0000               STORAGE =           0.0000
       CONSTANT HEAD =           0.0000         CONSTANT HEAD =           0.0000
               WELLS =           0.0000                 WELLS =           0.0000
       RIVER LEAKAGE =    37351232.0000         RIVER LEAKAGE =       3.4983E-02
                  ET =           0.0000                    ET =           0.0000
     HEAD DEP BOUNDS =           0.0000       HEAD DEP BOUNDS =           0.0000
            RECHARGE =   143027824.0000              RECHARGE =           0.1334
          SWIADDTOCH =           0.0000            SWIADDTOCH =           0.0000

            TOTAL IN =   180379056.0000              TOTAL IN =           0.1684

          OUT:                                     OUT:
          ----                                     ----
             STORAGE =           0.0000               STORAGE =           0.0000
       CONSTANT HEAD =           0.0000         CONSTANT HEAD =           0.0000
               WELLS =           0.0000                 WELLS =           0.0000
       RIVER LEAKAGE =     7548246.5000         RIVER LEAKAGE =       6.8028E-03
                  ET =    57460476.0000                    ET =       5.2273E-02
     HEAD DEP BOUNDS =   115377992.0000       HEAD DEP BOUNDS =           0.1093
            RECHARGE =           0.0000              RECHARGE =           0.0000
          SWIADDTOCH =           0.0000            SWIADDTOCH =           0.0000

           TOTAL OUT =   180386720.0000             TOTAL OUT =           0.1684

            IN - OUT =       -7664.0000              IN - OUT =      -4.7684E-07

 PERCENT DISCREPANCY =          -0.00     PERCENT DISCREPANCY =          -0.00






         TIME SUMMARY AT END OF TIME STEP   17 IN STRESS PERIOD    1
                    SECONDS     MINUTES      HOURS       DAYS        YEARS
                    -----------------------------------------------------------
   TIME STEP LENGTH 6.30720E+07 1.05120E+06  17520.      730.00      1.9986    
 STRESS PERIOD TIME 1.07222E+09 1.78704E+07 2.97840E+05  12410.      33.977    
         TOTAL TIME 1.07222E+09 1.78704E+07 2.97840E+05  12410.      33.977    
1
 
 SOLVING FOR HEAD 
     2 CALLS TO PCG ROUTINE FOR TIME STEP  18 IN STRESS PERIOD    1
    17 TOTAL ITERATIONS

 MAXIMUM HEAD CHANGE FOR EACH ITERATION (1 INDICATES THE FIRST INNER ITERATION):

    HEAD CHANGE    HEAD CHANGE    HEAD CHANGE    HEAD CHANGE    HEAD CHANGE 
   LAYER,ROW,COL  LAYER,ROW,COL  LAYER,ROW,COL  LAYER,ROW,COL  LAYER,ROW,COL
 ---------------------------------------------------------------------------
  1  0.1203      0 -0.9293E-01  0  0.2011      0 -0.1436      0  0.4126E-01
   (  1, 21,  3)  (  2, 59, 34)  (  2, 59, 34)  (  2, 59, 34)  (  2, 58, 31)
  0 -0.2326E-01  0 -0.8910E-02  0 -0.7317E-02  0  0.1400E-01  0 -0.5633E-02
   (  2, 19, 52)  (  2, 21, 50)  (  2, 58, 31)  (  2, 58, 31)  (  2,  3, 32)
  0 -0.5353E-02  0 -0.1745E-02  0  0.4305E-02  0 -0.7312E-02  0  0.3381E-02
   (  2, 58, 31)  (  2,  3, 32)  (  2, 59, 34)  (  2, 59, 34)  (  2, 59, 34)
  0  0.6728E-03  1 -0.2767E-03
   (  2, 58, 31)  (  2, 19, 52)

 MAXIMUM RESIDUAL FOR EACH ITERATION (1 INDICATES THE FIRST INNER ITERATION):

    RESIDUAL       RESIDUAL       RESIDUAL       RESIDUAL       RESIDUAL    
   LAYER,ROW,COL  LAYER,ROW,COL  LAYER,ROW,COL  LAYER,ROW,COL  LAYER,ROW,COL
 ---------------------------------------------------------------------------
  1 -0.3332E-03  0  0.9941E-04  0  0.9210E-04  0  0.8417E-04  0  0.6543E-04
   (  1,  6,  2)  (  2,  6,  2)  (  2,  6,  2)  (  2,  6,  2)  (  2,  6,  2)
  0  0.4093E-04  0  0.3288E-04  0  0.2055E-04  0  0.1181E-04  0  0.8510E-05
   (  2,  6,  2)  (  2,  6,  2)  (  2,  6,  2)  (  2, 20,  4)  (  2,  7,  1)
  0  0.6968E-05  0  0.4510E-05  0 -0.3107E-05  0 -0.2899E-05  0 -0.1838E-05
   (  2,  7,  1)  (  2,  7,  1)  (  1,  7,  1)  (  1,  7,  1)  (  1,  7,  1)
  0 -0.1235E-05  1 -0.1219E-05
   (  1,  7,  1)  (  1,  7,  1)



 OUTPUT CONTROL FOR STRESS PERIOD    1   TIME STEP   18
    SAVE HEAD FOR ALL LAYERS
    SAVE DRAWDOWN FOR ALL LAYERS
    SAVE BUDGET
    PRINT BUDGET
 UBDSV2 SAVING "   CONSTANT HEAD" ON UNIT   9 AT TIME STEP 18, STRESS PERIOD   1
 UBDSV1 SAVING "FLOW RIGHT FACE " ON UNIT   9 AT TIME STEP 18, STRESS PERIOD   1
 UBDSV1 SAVING "FLOW FRONT FACE " ON UNIT   9 AT TIME STEP 18, STRESS PERIOD   1
 UBDSV1 SAVING "FLOW LOWER FACE " ON UNIT   9 AT TIME STEP 18, STRESS PERIOD   1
 UBDSV4 SAVING "           WELLS" ON UNIT   9 AT TIME STEP 18, STRESS PERIOD   1
 UBDSV4 SAVING "   RIVER LEAKAGE" ON UNIT   9 AT TIME STEP 18, STRESS PERIOD   1
 UBDSV3 SAVING "              ET" ON UNIT   9 AT TIME STEP 18, STRESS PERIOD   1
 UBDSV4 SAVING " HEAD DEP BOUNDS" ON UNIT   9 AT TIME STEP 18, STRESS PERIOD   1
 UBDSV3 SAVING "        RECHARGE" ON UNIT   9 AT TIME STEP 18, STRESS PERIOD   1
 SOLVING FOR ZETA FOR LAYER     1 ZONE     2
     2 CALLS TO PCG ROUTINE FOR TIME STEP  18 IN STRESS PERIOD    1
     5 TOTAL ITERATIONS

 MAXIMUM HEAD CHANGE FOR EACH ITERATION (1 INDICATES THE FIRST INNER ITERATION):

    HEAD CHANGE    HEAD CHANGE    HEAD CHANGE    HEAD CHANGE    HEAD CHANGE 
   LAYER,ROW,COL  LAYER,ROW,COL  LAYER,ROW,COL  LAYER,ROW,COL  LAYER,ROW,COL
 ---------------------------------------------------------------------------
  1  -5.674      0 -0.3398      0 -0.1081E-01  0 -0.2902E-03  1 -0.1115E-04
   (  1,  6,  2)  (  1, 20,  4)  (  1, 21,  3)  (  1, 32,  4)  (  1, 33,  3)

 MAXIMUM RESIDUAL FOR EACH ITERATION (1 INDICATES THE FIRST INNER ITERATION):

    RESIDUAL       RESIDUAL       RESIDUAL       RESIDUAL       RESIDUAL    
   LAYER,ROW,COL  LAYER,ROW,COL  LAYER,ROW,COL  LAYER,ROW,COL  LAYER,ROW,COL
 ---------------------------------------------------------------------------
  1  0.3498E-04  0  0.9782E-06  0  0.3135E-07  0  0.1458E-08  1  0.1082E-09
   (  1, 20,  4)  (  1, 21,  3)  (  1, 32,  4)  (  1, 33,  3)  (  1, 32,  4)


 SOLVING FOR ZETA FOR LAYER     2 ZONE     2
     2 CALLS TO PCG ROUTINE FOR TIME STEP  18 IN STRESS PERIOD    1
     5 TOTAL ITERATIONS

 MAXIMUM HEAD CHANGE FOR EACH ITERATION (1 INDICATES THE FIRST INNER ITERATION):

    HEAD CHANGE    HEAD CHANGE    HEAD CHANGE    HEAD CHANGE    HEAD CHANGE 
   LAYER,ROW,COL  LAYER,ROW,COL  LAYER,ROW,COL  LAYER,ROW,COL  LAYER,ROW,COL
 ---------------------------------------------------------------------------
  1  -1.324      0 -0.7241E-01  0 -0.2865E-02  0  0.7370E-04  1  0.2117E-05
   (  1, 29,  5)  (  1, 27,  6)  (  1, 28,  5)  (  1, 23,  6)  (  1, 24,  5)

 MAXIMUM RESIDUAL FOR EACH ITERATION (1 INDICATES THE FIRST INNER ITERATION):

    RESIDUAL       RESIDUAL       RESIDUAL       RESIDUAL       RESIDUAL    
   LAYER,ROW,COL  LAYER,ROW,COL  LAYER,ROW,COL  LAYER,ROW,COL  LAYER,ROW,COL
 ---------------------------------------------------------------------------
  1  0.5905E-05  0  0.2910E-06  0 -0.6012E-08  0 -0.3360E-09  1  0.1163E-10
   (  1, 27,  6)  (  1, 28,  5)  (  1, 23,  6)  (  1, 24,  5)  (  1, 25,  6)


 UBUDSV SAVING "      ZETASRF  1" ON UNIT170 AT TIME STEP 18, STRESS PERIOD    1


                      VOLUMETRIC SWI ZONE BUDGET FOR ENTIRE MODEL
                     AT END OF TIME STEP   18 IN STRESS PERIOD   1
                                      ZONE     1
  -----------------------------------------------------------------------------------

        CUMULATIVE VOLUMES      L**3       RATES FOR THIS TIME STEP      L**3/T
        ------------------                 ------------------------

              IN:                                      IN:
              ---                                      ---
             BOUNDARIES =   181887536.0000            BOUNDARIES =           0.1606
          CONSTANT HEAD =           0.0000         CONSTANT HEAD =           0.0000
            ZONE CHANGE =    82197856.0000           ZONE CHANGE =       5.3538E-04
       ZONE CHG TIP/TOE =     3632287.0000      ZONE CHG TIP/TOE =       1.8240E-05
            ZONE MIXING =           0.0000           ZONE MIXING =           0.0000

               TOTAL IN =   267717680.0000              TOTAL IN =           0.1611

             OUT:                                     OUT:
             ----                                     ----
             BOUNDARIES =   156469808.0000            BOUNDARIES =           0.1569
          CONSTANT HEAD =           0.0000         CONSTANT HEAD =           0.0000
            ZONE CHANGE =    20017532.0000           ZONE CHANGE =       4.1483E-03
       ZONE CHG TIP/TOE =     3285144.0000      ZONE CHG TIP/TOE =       1.8240E-05
            ZONE MIXING =           0.0000           ZONE MIXING =           0.0000

              TOTAL OUT =   179772480.0000             TOTAL OUT =           0.1611

               IN - OUT =    87945200.0000              IN - OUT =       4.6462E-05

    PERCENT DISCREPANCY =          39.31     PERCENT DISCREPANCY =           0.03



                      VOLUMETRIC SWI ZONE BUDGET FOR ENTIRE MODEL
                     AT END OF TIME STEP   18 IN STRESS PERIOD   1
                                      ZONE     2
  -----------------------------------------------------------------------------------

        CUMULATIVE VOLUMES      L**3       RATES FOR THIS TIME STEP      L**3/T
        ------------------                 ------------------------

              IN:                                      IN:
              ---                                      ---
             BOUNDARIES =           0.0000            BOUNDARIES =           0.0000
          CONSTANT HEAD =           0.0000         CONSTANT HEAD =           0.0000
            ZONE CHANGE =    16833716.0000           ZONE CHANGE =       4.1472E-03
       ZONE CHG TIP/TOE =     3285144.0000      ZONE CHG TIP/TOE =       1.8240E-05
            ZONE MIXING =           0.0000           ZONE MIXING =           0.0000

               TOTAL IN =    20118860.0000              TOTAL IN =       4.1655E-03

             OUT:                                     OUT:
             ----                                     ----
             BOUNDARIES =    25425584.0000            BOUNDARIES =       3.6625E-03
          CONSTANT HEAD =           0.0000         CONSTANT HEAD =           0.0000
            ZONE CHANGE =     1656111.2500           ZONE CHANGE =       4.8269E-04
       ZONE CHG TIP/TOE =     1323688.1250      ZONE CHG TIP/TOE =       1.8240E-05
            ZONE MIXING =           0.0000           ZONE MIXING =           0.0000

              TOTAL OUT =    28405384.0000             TOTAL OUT =       4.1634E-03

               IN - OUT =    -8286524.0000              IN - OUT =       2.0298E-06

    PERCENT DISCREPANCY =         -34.15     PERCENT DISCREPANCY =           0.05


 HEAD WILL BE SAVED ON UNIT   37 AT END OF TIME STEP   18, STRESS PERIOD    1

 DRAWDOWN WILL BE SAVED ON UNIT   38 AT END OF TIME STEP   18, STRESS PERIOD    1
1
  VOLUMETRIC BUDGET FOR ENTIRE MODEL AT END OF TIME STEP   18, STRESS PERIOD   1
  ------------------------------------------------------------------------------

     CUMULATIVE VOLUMES      L**3       RATES FOR THIS TIME STEP      L**3/T
     ------------------                 ------------------------

           IN:                                      IN:
           ---                                      ---
             STORAGE =           0.0000               STORAGE =           0.0000
       CONSTANT HEAD =           0.0000         CONSTANT HEAD =           0.0000
               WELLS =           0.0000                 WELLS =           0.0000
       RIVER LEAKAGE =    39557780.0000         RIVER LEAKAGE =       3.4985E-02
                  ET =           0.0000                    ET =           0.0000
     HEAD DEP BOUNDS =           0.0000       HEAD DEP BOUNDS =           0.0000
            RECHARGE =   151441232.0000              RECHARGE =           0.1334
          SWIADDTOCH =           0.0000            SWIADDTOCH =           0.0000

            TOTAL IN =   190999008.0000              TOTAL IN =           0.1684

          OUT:                                     OUT:
          ----                                     ----
             STORAGE =           0.0000               STORAGE =           0.0000
       CONSTANT HEAD =           0.0000         CONSTANT HEAD =           0.0000
               WELLS =           0.0000                 WELLS =           0.0000
       RIVER LEAKAGE =     7977145.5000         RIVER LEAKAGE =       6.8002E-03
                  ET =    60754924.0000                    ET =       5.2233E-02
     HEAD DEP BOUNDS =   122274792.0000       HEAD DEP BOUNDS =           0.1093
            RECHARGE =           0.0000              RECHARGE =           0.0000
          SWIADDTOCH =           0.0000            SWIADDTOCH =           0.0000

           TOTAL OUT =   191006864.0000             TOTAL OUT =           0.1684

            IN - OUT =       -7856.0000              IN - OUT =      -3.1441E-06

 PERCENT DISCREPANCY =          -0.00     PERCENT DISCREPANCY =          -0.00






         TIME SUMMARY AT END OF TIME STEP   18 IN STRESS PERIOD    1
                    SECONDS     MINUTES      HOURS       DAYS        YEARS
                    -----------------------------------------------------------
   TIME STEP LENGTH 6.30720E+07 1.05120E+06  17520.      730.00      1.9986    
 STRESS PERIOD TIME 1.13530E+09 1.89216E+07 3.15360E+05  13140.      35.975    
         TOTAL TIME 1.13530E+09 1.89216E+07 3.15360E+05  13140.      35.975    
1
 
 SOLVING FOR HEAD 
     2 CALLS TO PCG ROUTINE FOR TIME STEP  19 IN STRESS PERIOD    1
    17 TOTAL ITERATIONS

 MAXIMUM HEAD CHANGE FOR EACH ITERATION (1 INDICATES THE FIRST INNER ITERATION):

    HEAD CHANGE    HEAD CHANGE    HEAD CHANGE    HEAD CHANGE    HEAD CHANGE 
   LAYER,ROW,COL  LAYER,ROW,COL  LAYER,ROW,COL  LAYER,ROW,COL  LAYER,ROW,COL
 ---------------------------------------------------------------------------
  1  0.1047      0 -0.5696E-01  0  0.5219E-01  0  0.7893E-01  0 -0.9619E-01
   (  1, 21,  3)  (  2, 19, 52)  (  2, 19, 52)  (  2, 59, 34)  (  2, 59, 34)
  0  0.3735E-01  0  0.9927E-02  0 -0.1199E-01  0  0.8605E-02  0 -0.3096E-02
   (  2, 59, 34)  (  2, 58, 31)  (  2, 58, 31)  (  2, 58, 31)  (  2,  3, 32)
  0  0.4213E-02  0 -0.6350E-02  0  0.6774E-02  0 -0.4768E-02  0  0.1684E-02
   (  2, 59, 34)  (  2, 59, 34)  (  2, 59, 34)  (  2, 59, 34)  (  2, 58, 31)
  0 -0.9807E-03  1  0.4630E-03
   (  2, 58, 31)  (  2, 58, 31)

 MAXIMUM RESIDUAL FOR EACH ITERATION (1 INDICATES THE FIRST INNER ITERATION):

    RESIDUAL       RESIDUAL       RESIDUAL       RESIDUAL       RESIDUAL    
   LAYER,ROW,COL  LAYER,ROW,COL  LAYER,ROW,COL  LAYER,ROW,COL  LAYER,ROW,COL
 ---------------------------------------------------------------------------
  1 -0.2882E-03  0 -0.1969E-03  0 -0.6510E-04  0 -0.6187E-04  0 -0.5352E-04
   (  1,  6,  2)  (  1,  6,  2)  (  2,  6,  1)  (  2,  6,  1)  (  2,  6,  1)
  0 -0.3213E-04  0 -0.1631E-04  0 -0.1189E-04  0 -0.9366E-05  0 -0.6925E-05
   (  2,  6,  1)  (  1,  7,  1)  (  1,  7,  1)  (  1,  7,  1)  (  1,  7,  1)
  0 -0.5383E-05  0 -0.4925E-05  0 -0.3676E-05  0 -0.3136E-05  0 -0.1822E-05
   (  1,  7,  1)  (  1,  7,  1)  (  1,  7,  1)  (  1,  7,  1)  (  1,  7,  1)
  0 -0.1197E-05  1 -0.1015E-05
   (  1,  7,  1)  (  1,  7,  1)



 OUTPUT CONTROL FOR STRESS PERIOD    1   TIME STEP   19
    SAVE HEAD FOR ALL LAYERS
    SAVE DRAWDOWN FOR ALL LAYERS
    SAVE BUDGET
    PRINT BUDGET
 UBDSV2 SAVING "   CONSTANT HEAD" ON UNIT   9 AT TIME STEP 19, STRESS PERIOD   1
 UBDSV1 SAVING "FLOW RIGHT FACE " ON UNIT   9 AT TIME STEP 19, STRESS PERIOD   1
 UBDSV1 SAVING "FLOW FRONT FACE " ON UNIT   9 AT TIME STEP 19, STRESS PERIOD   1
 UBDSV1 SAVING "FLOW LOWER FACE " ON UNIT   9 AT TIME STEP 19, STRESS PERIOD   1
 UBDSV4 SAVING "           WELLS" ON UNIT   9 AT TIME STEP 19, STRESS PERIOD   1
 UBDSV4 SAVING "   RIVER LEAKAGE" ON UNIT   9 AT TIME STEP 19, STRESS PERIOD   1
 UBDSV3 SAVING "              ET" ON UNIT   9 AT TIME STEP 19, STRESS PERIOD   1
 UBDSV4 SAVING " HEAD DEP BOUNDS" ON UNIT   9 AT TIME STEP 19, STRESS PERIOD   1
 UBDSV3 SAVING "        RECHARGE" ON UNIT   9 AT TIME STEP 19, STRESS PERIOD   1
 SOLVING FOR ZETA FOR LAYER     1 ZONE     2
     2 CALLS TO PCG ROUTINE FOR TIME STEP  19 IN STRESS PERIOD    1
     5 TOTAL ITERATIONS

 MAXIMUM HEAD CHANGE FOR EACH ITERATION (1 INDICATES THE FIRST INNER ITERATION):

    HEAD CHANGE    HEAD CHANGE    HEAD CHANGE    HEAD CHANGE    HEAD CHANGE 
   LAYER,ROW,COL  LAYER,ROW,COL  LAYER,ROW,COL  LAYER,ROW,COL  LAYER,ROW,COL
 ---------------------------------------------------------------------------
  1  -4.312      0 -0.2498      0 -0.7214E-02  0 -0.1864E-03  1 -0.7653E-05
   (  1, 21,  3)  (  1, 20,  4)  (  1, 21,  3)  (  1, 19,  4)  (  1, 33,  3)

 MAXIMUM RESIDUAL FOR EACH ITERATION (1 INDICATES THE FIRST INNER ITERATION):

    RESIDUAL       RESIDUAL       RESIDUAL       RESIDUAL       RESIDUAL    
   LAYER,ROW,COL  LAYER,ROW,COL  LAYER,ROW,COL  LAYER,ROW,COL  LAYER,ROW,COL
 ---------------------------------------------------------------------------
  1  0.2558E-04  0  0.6424E-06  0  0.1913E-07  0  0.9440E-09  1  0.6619E-10
   (  1, 20,  4)  (  1, 21,  3)  (  1, 19,  4)  (  1, 33,  3)  (  1, 32,  4)


 SOLVING FOR ZETA FOR LAYER     2 ZONE     2
     2 CALLS TO PCG ROUTINE FOR TIME STEP  19 IN STRESS PERIOD    1
     5 TOTAL ITERATIONS

 MAXIMUM HEAD CHANGE FOR EACH ITERATION (1 INDICATES THE FIRST INNER ITERATION):

    HEAD CHANGE    HEAD CHANGE    HEAD CHANGE    HEAD CHANGE    HEAD CHANGE 
   LAYER,ROW,COL  LAYER,ROW,COL  LAYER,ROW,COL  LAYER,ROW,COL  LAYER,ROW,COL
 ---------------------------------------------------------------------------
  1  -1.212      0 -0.6415E-01  0 -0.2514E-02  0  0.6281E-04  1  0.1821E-05
   (  1, 28,  5)  (  1, 27,  6)  (  1, 27,  5)  (  1, 23,  6)  (  1, 24,  5)

 MAXIMUM RESIDUAL FOR EACH ITERATION (1 INDICATES THE FIRST INNER ITERATION):

    RESIDUAL       RESIDUAL       RESIDUAL       RESIDUAL       RESIDUAL    
   LAYER,ROW,COL  LAYER,ROW,COL  LAYER,ROW,COL  LAYER,ROW,COL  LAYER,ROW,COL
 ---------------------------------------------------------------------------
  1  0.5312E-05  0  0.2451E-06  0 -0.5017E-08  0 -0.2673E-09  1  0.8298E-11
   (  1, 27,  6)  (  1, 27,  5)  (  1, 23,  6)  (  1, 24,  5)  (  1, 25,  6)


 UBUDSV SAVING "      ZETASRF  1" ON UNIT170 AT TIME STEP 19, STRESS PERIOD    1


                      VOLUMETRIC SWI ZONE BUDGET FOR ENTIRE MODEL
                     AT END OF TIME STEP   19 IN STRESS PERIOD   1
                                      ZONE     1
  -----------------------------------------------------------------------------------

        CUMULATIVE VOLUMES      L**3       RATES FOR THIS TIME STEP      L**3/T
        ------------------                 ------------------------

              IN:                                      IN:
              ---                                      ---
             BOUNDARIES =   192016688.0000            BOUNDARIES =           0.1606
          CONSTANT HEAD =           0.0000         CONSTANT HEAD =           0.0000
            ZONE CHANGE =    82212704.0000           ZONE CHANGE =       2.3543E-04
       ZONE CHG TIP/TOE =     3641375.0000      ZONE CHG TIP/TOE =       1.4409E-04
            ZONE MIXING =           0.0000           ZONE MIXING =           0.0000

               TOTAL IN =   277870784.0000              TOTAL IN =           0.1610

             OUT:                                     OUT:
             ----                                     ----
             BOUNDARIES =   166390704.0000            BOUNDARIES =           0.1573
          CONSTANT HEAD =           0.0000         CONSTANT HEAD =           0.0000
            ZONE CHANGE =    20239766.0000           ZONE CHANGE =       3.5235E-03
       ZONE CHG TIP/TOE =     3295320.2500      ZONE CHG TIP/TOE =       1.6134E-04
            ZONE MIXING =           0.0000           ZONE MIXING =           0.0000

              TOTAL OUT =   189925792.0000             TOTAL OUT =           0.1610

               IN - OUT =    87944992.0000              IN - OUT =      -3.5614E-06

    PERCENT DISCREPANCY =          37.60     PERCENT DISCREPANCY =          -0.00



                      VOLUMETRIC SWI ZONE BUDGET FOR ENTIRE MODEL
                     AT END OF TIME STEP   19 IN STRESS PERIOD   1
                                      ZONE     2
  -----------------------------------------------------------------------------------

        CUMULATIVE VOLUMES      L**3       RATES FOR THIS TIME STEP      L**3/T
        ------------------                 ------------------------

              IN:                                      IN:
              ---                                      ---
             BOUNDARIES =           0.0000            BOUNDARIES =           0.0000
          CONSTANT HEAD =           0.0000         CONSTANT HEAD =           0.0000
            ZONE CHANGE =    17054566.0000           ZONE CHANGE =       3.5016E-03
       ZONE CHG TIP/TOE =     3295320.2500      ZONE CHG TIP/TOE =       1.6134E-04
            ZONE MIXING =           0.0000           ZONE MIXING =           0.0000

               TOTAL IN =    20349886.0000              TOTAL IN =       3.6629E-03

             OUT:                                     OUT:
             ----                                     ----
             BOUNDARIES =    25633948.0000            BOUNDARIES =       3.3036E-03
          CONSTANT HEAD =           0.0000         CONSTANT HEAD =           0.0000
            ZONE CHANGE =     1669598.8750           ZONE CHANGE =       2.1385E-04
       ZONE CHG TIP/TOE =     1331688.1250      ZONE CHG TIP/TOE =       1.2684E-04
            ZONE MIXING =           0.0000           ZONE MIXING =           0.0000

              TOTAL OUT =    28635236.0000             TOTAL OUT =       3.6443E-03

               IN - OUT =    -8285350.0000              IN - OUT =       1.8645E-05

    PERCENT DISCREPANCY =         -33.83     PERCENT DISCREPANCY =           0.51


 HEAD WILL BE SAVED ON UNIT   37 AT END OF TIME STEP   19, STRESS PERIOD    1

 DRAWDOWN WILL BE SAVED ON UNIT   38 AT END OF TIME STEP   19, STRESS PERIOD    1
1
  VOLUMETRIC BUDGET FOR ENTIRE MODEL AT END OF TIME STEP   19, STRESS PERIOD   1
  ------------------------------------------------------------------------------

     CUMULATIVE VOLUMES      L**3       RATES FOR THIS TIME STEP      L**3/T
     ------------------                 ------------------------

           IN:                                      IN:
           ---                                      ---
             STORAGE =           0.0000               STORAGE =           0.0000
       CONSTANT HEAD =           0.0000         CONSTANT HEAD =           0.0000
               WELLS =           0.0000                 WELLS =           0.0000
       RIVER LEAKAGE =    41764396.0000         RIVER LEAKAGE =       3.4986E-02
                  ET =           0.0000                    ET =           0.0000
     HEAD DEP BOUNDS =           0.0000       HEAD DEP BOUNDS =           0.0000
            RECHARGE =   159854640.0000              RECHARGE =           0.1334
          SWIADDTOCH =           0.0000            SWIADDTOCH =           0.0000

            TOTAL IN =   201619040.0000              TOTAL IN =           0.1684

          OUT:                                     OUT:
          ----                                     ----
             STORAGE =           0.0000               STORAGE =           0.0000
       CONSTANT HEAD =           0.0000         CONSTANT HEAD =           0.0000
               WELLS =           0.0000                 WELLS =           0.0000
       RIVER LEAKAGE =     8405882.0000         RIVER LEAKAGE =       6.7976E-03
                  ET =    64049416.0000                    ET =       5.2234E-02
     HEAD DEP BOUNDS =   129171696.0000       HEAD DEP BOUNDS =           0.1093
            RECHARGE =           0.0000              RECHARGE =           0.0000
          SWIADDTOCH =           0.0000            SWIADDTOCH =           0.0000

           TOTAL OUT =   201626992.0000             TOTAL OUT =           0.1684

            IN - OUT =       -7952.0000              IN - OUT =      -1.8179E-06

 PERCENT DISCREPANCY =          -0.00     PERCENT DISCREPANCY =          -0.00






         TIME SUMMARY AT END OF TIME STEP   19 IN STRESS PERIOD    1
                    SECONDS     MINUTES      HOURS       DAYS        YEARS
                    -----------------------------------------------------------
   TIME STEP LENGTH 6.30720E+07 1.05120E+06  17520.      730.00      1.9986    
 STRESS PERIOD TIME 1.19837E+09 1.99728E+07 3.32880E+05  13870.      37.974    
         TOTAL TIME 1.19837E+09 1.99728E+07 3.32880E+05  13870.      37.974    
1
 
 SOLVING FOR HEAD 
     2 CALLS TO PCG ROUTINE FOR TIME STEP  20 IN STRESS PERIOD    1
    17 TOTAL ITERATIONS

 MAXIMUM HEAD CHANGE FOR EACH ITERATION (1 INDICATES THE FIRST INNER ITERATION):

    HEAD CHANGE    HEAD CHANGE    HEAD CHANGE    HEAD CHANGE    HEAD CHANGE 
   LAYER,ROW,COL  LAYER,ROW,COL  LAYER,ROW,COL  LAYER,ROW,COL  LAYER,ROW,COL
 ---------------------------------------------------------------------------
  1  0.1038      0 -0.3449E-01  0 -0.7824E-01  0  0.9062E-01  0 -0.8665E-01
   (  1,  9,  2)  (  2, 19, 52)  (  2, 59, 34)  (  2, 59, 34)  (  2, 59, 34)
  0  0.6028E-01  0  0.1879E-01  0  0.1201E-01  0  0.8402E-02  0 -0.1057E-01
   (  2, 59, 34)  (  2, 58, 31)  (  2, 58, 31)  (  2,  3, 32)  (  2, 58, 31)
  0  0.6386E-02  0 -0.1838E-02  0 -0.5505E-02  0  0.6644E-02  0 -0.1936E-02
   (  2, 58, 31)  (  2, 58, 31)  (  2, 59, 34)  (  2, 59, 34)  (  2, 59, 34)
  0  0.5807E-03  1 -0.4621E-03
   (  2, 59, 34)  (  2, 59, 34)

 MAXIMUM RESIDUAL FOR EACH ITERATION (1 INDICATES THE FIRST INNER ITERATION):

    RESIDUAL       RESIDUAL       RESIDUAL       RESIDUAL       RESIDUAL    
   LAYER,ROW,COL  LAYER,ROW,COL  LAYER,ROW,COL  LAYER,ROW,COL  LAYER,ROW,COL
 ---------------------------------------------------------------------------
  1  0.2358E-03  0  0.1124E-03  0  0.8572E-04  0  0.8280E-04  0  0.6663E-04
   (  2,  9,  2)  (  2,  9,  2)  (  2,  9,  2)  (  2,  9,  2)  (  2,  9,  2)
  0  0.5802E-04  0  0.3068E-04  0  0.2204E-04  0  0.1204E-04  0 -0.7445E-05
   (  2,  9,  2)  (  2,  9,  2)  (  2,  9,  2)  (  2,  8,  3)  (  1,  7,  1)
  0 -0.5365E-05  0 -0.3547E-05  0 -0.2404E-05  0 -0.2101E-05  0 -0.1330E-05
   (  1,  7,  1)  (  1,  7,  1)  (  1,  7,  1)  (  1,  7,  1)  (  1,  7,  1)
  0 -0.1213E-05  1 -0.1158E-05
   (  1,  7,  1)  (  1,  7,  1)



 OUTPUT CONTROL FOR STRESS PERIOD    1   TIME STEP   20
    SAVE HEAD FOR ALL LAYERS
    SAVE DRAWDOWN FOR ALL LAYERS
    SAVE BUDGET
    PRINT BUDGET
 UBDSV2 SAVING "   CONSTANT HEAD" ON UNIT   9 AT TIME STEP 20, STRESS PERIOD   1
 UBDSV1 SAVING "FLOW RIGHT FACE " ON UNIT   9 AT TIME STEP 20, STRESS PERIOD   1
 UBDSV1 SAVING "FLOW FRONT FACE " ON UNIT   9 AT TIME STEP 20, STRESS PERIOD   1
 UBDSV1 SAVING "FLOW LOWER FACE " ON UNIT   9 AT TIME STEP 20, STRESS PERIOD   1
 UBDSV4 SAVING "           WELLS" ON UNIT   9 AT TIME STEP 20, STRESS PERIOD   1
 UBDSV4 SAVING "   RIVER LEAKAGE" ON UNIT   9 AT TIME STEP 20, STRESS PERIOD   1
 UBDSV3 SAVING "              ET" ON UNIT   9 AT TIME STEP 20, STRESS PERIOD   1
 UBDSV4 SAVING " HEAD DEP BOUNDS" ON UNIT   9 AT TIME STEP 20, STRESS PERIOD   1
 UBDSV3 SAVING "        RECHARGE" ON UNIT   9 AT TIME STEP 20, STRESS PERIOD   1
 SOLVING FOR ZETA FOR LAYER     1 ZONE     2
     2 CALLS TO PCG ROUTINE FOR TIME STEP  20 IN STRESS PERIOD    1
     5 TOTAL ITERATIONS

 MAXIMUM HEAD CHANGE FOR EACH ITERATION (1 INDICATES THE FIRST INNER ITERATION):

    HEAD CHANGE    HEAD CHANGE    HEAD CHANGE    HEAD CHANGE    HEAD CHANGE 
   LAYER,ROW,COL  LAYER,ROW,COL  LAYER,ROW,COL  LAYER,ROW,COL  LAYER,ROW,COL
 ---------------------------------------------------------------------------
  1  -6.383      0 -0.1762      0 -0.6813E-02  0 -0.1209E-03  1 -0.4802E-05
   (  1,  9,  2)  (  1, 20,  4)  (  1, 21,  3)  (  1, 19,  4)  (  1, 33,  3)

 MAXIMUM RESIDUAL FOR EACH ITERATION (1 INDICATES THE FIRST INNER ITERATION):

    RESIDUAL       RESIDUAL       RESIDUAL       RESIDUAL       RESIDUAL    
   LAYER,ROW,COL  LAYER,ROW,COL  LAYER,ROW,COL  LAYER,ROW,COL  LAYER,ROW,COL
 ---------------------------------------------------------------------------
  1  0.1786E-04  0  0.6707E-06  0  0.1231E-07  0  0.6003E-09  1  0.3795E-10
   (  1, 20,  4)  (  1, 21,  3)  (  1, 19,  4)  (  1, 33,  3)  (  1, 32,  4)


 SOLVING FOR ZETA FOR LAYER     2 ZONE     2
     2 CALLS TO PCG ROUTINE FOR TIME STEP  20 IN STRESS PERIOD    1
     5 TOTAL ITERATIONS

 MAXIMUM HEAD CHANGE FOR EACH ITERATION (1 INDICATES THE FIRST INNER ITERATION):

    HEAD CHANGE    HEAD CHANGE    HEAD CHANGE    HEAD CHANGE    HEAD CHANGE 
   LAYER,ROW,COL  LAYER,ROW,COL  LAYER,ROW,COL  LAYER,ROW,COL  LAYER,ROW,COL
 ---------------------------------------------------------------------------
  1  -2.177      0 -0.1141      0 -0.2089E-02  0  0.6605E-04  1  0.2443E-05
   (  1, 29,  5)  (  1, 28,  6)  (  1, 27,  5)  (  1, 28,  6)  (  1, 29,  5)

 MAXIMUM RESIDUAL FOR EACH ITERATION (1 INDICATES THE FIRST INNER ITERATION):

    RESIDUAL       RESIDUAL       RESIDUAL       RESIDUAL       RESIDUAL    
   LAYER,ROW,COL  LAYER,ROW,COL  LAYER,ROW,COL  LAYER,ROW,COL  LAYER,ROW,COL
 ---------------------------------------------------------------------------
  1  0.9296E-05  0  0.2072E-06  0 -0.5339E-08  0 -0.3118E-09  1 -0.1147E-10
   (  1, 28,  6)  (  1, 28,  5)  (  1, 28,  6)  (  1, 29,  5)  (  1, 28,  6)


 UBUDSV SAVING "      ZETASRF  1" ON UNIT170 AT TIME STEP 20, STRESS PERIOD    1


                      VOLUMETRIC SWI ZONE BUDGET FOR ENTIRE MODEL
                     AT END OF TIME STEP   20 IN STRESS PERIOD   1
                                      ZONE     1
  -----------------------------------------------------------------------------------

        CUMULATIVE VOLUMES      L**3       RATES FOR THIS TIME STEP      L**3/T
        ------------------                 ------------------------

              IN:                                      IN:
              ---                                      ---
             BOUNDARIES =   202146528.0000            BOUNDARIES =           0.1606
          CONSTANT HEAD =           0.0000         CONSTANT HEAD =           0.0000
            ZONE CHANGE =    82237024.0000           ZONE CHANGE =       3.8562E-04
       ZONE CHG TIP/TOE =     3650366.2500      ZONE CHG TIP/TOE =       1.4256E-04
            ZONE MIXING =           0.0000           ZONE MIXING =           0.0000

               TOTAL IN =   288033920.0000              TOTAL IN =           0.1611

             OUT:                                     OUT:
             ----                                     ----
             BOUNDARIES =   176328960.0000            BOUNDARIES =           0.1576
          CONSTANT HEAD =           0.0000         CONSTANT HEAD =           0.0000
            ZONE CHANGE =    20451948.0000           ZONE CHANGE =       3.3641E-03
       ZONE CHG TIP/TOE =     3305003.2500      ZONE CHG TIP/TOE =       1.5352E-04
            ZONE MIXING =           0.0000           ZONE MIXING =           0.0000

              TOTAL OUT =   200085920.0000             TOTAL OUT =           0.1611

               IN - OUT =    87948000.0000              IN - OUT =       4.7848E-05

    PERCENT DISCREPANCY =          36.04     PERCENT DISCREPANCY =           0.03



                      VOLUMETRIC SWI ZONE BUDGET FOR ENTIRE MODEL
                     AT END OF TIME STEP   20 IN STRESS PERIOD   1
                                      ZONE     2
  -----------------------------------------------------------------------------------

        CUMULATIVE VOLUMES      L**3       RATES FOR THIS TIME STEP      L**3/T
        ------------------                 ------------------------

              IN:                                      IN:
              ---                                      ---
             BOUNDARIES =           0.0000            BOUNDARIES =           0.0000
          CONSTANT HEAD =           0.0000         CONSTANT HEAD =           0.0000
            ZONE CHANGE =    17266052.0000           ZONE CHANGE =       3.3531E-03
       ZONE CHG TIP/TOE =     3305003.2500      ZONE CHG TIP/TOE =       1.5352E-04
            ZONE MIXING =           0.0000           ZONE MIXING =           0.0000

               TOTAL IN =    20571056.0000              TOTAL IN =       3.5066E-03

             OUT:                                     OUT:
             ----                                     ----
             BOUNDARIES =    25825768.0000            BOUNDARIES =       3.0413E-03
          CONSTANT HEAD =           0.0000         CONSTANT HEAD =           0.0000
            ZONE CHANGE =     1689810.3750           ZONE CHANGE =       3.2045E-04
       ZONE CHG TIP/TOE =     1339987.7500      ZONE CHG TIP/TOE =       1.3159E-04
            ZONE MIXING =           0.0000           ZONE MIXING =           0.0000

              TOTAL OUT =    28855566.0000             TOTAL OUT =       3.4933E-03

               IN - OUT =    -8284510.0000              IN - OUT =       1.3260E-05

    PERCENT DISCREPANCY =         -33.52     PERCENT DISCREPANCY =           0.38


 HEAD WILL BE SAVED ON UNIT   37 AT END OF TIME STEP   20, STRESS PERIOD    1

 DRAWDOWN WILL BE SAVED ON UNIT   38 AT END OF TIME STEP   20, STRESS PERIOD    1
1
  VOLUMETRIC BUDGET FOR ENTIRE MODEL AT END OF TIME STEP   20, STRESS PERIOD   1
  ------------------------------------------------------------------------------

     CUMULATIVE VOLUMES      L**3       RATES FOR THIS TIME STEP      L**3/T
     ------------------                 ------------------------

           IN:                                      IN:
           ---                                      ---
             STORAGE =           0.0000               STORAGE =           0.0000
       CONSTANT HEAD =           0.0000         CONSTANT HEAD =           0.0000
               WELLS =           0.0000                 WELLS =           0.0000
       RIVER LEAKAGE =    43971380.0000         RIVER LEAKAGE =       3.4991E-02
                  ET =           0.0000                    ET =           0.0000
     HEAD DEP BOUNDS =           0.0000       HEAD DEP BOUNDS =           0.0000
            RECHARGE =   168268048.0000              RECHARGE =           0.1334
          SWIADDTOCH =           0.0000            SWIADDTOCH =           0.0000

            TOTAL IN =   212239424.0000              TOTAL IN =           0.1684

          OUT:                                     OUT:
          ----                                     ----
             STORAGE =           0.0000               STORAGE =           0.0000
       CONSTANT HEAD =           0.0000         CONSTANT HEAD =           0.0000
               WELLS =           0.0000                 WELLS =           0.0000
       RIVER LEAKAGE =     8833869.0000         RIVER LEAKAGE =       6.7857E-03
                  ET =    67340792.0000                    ET =       5.2184E-02
     HEAD DEP BOUNDS =   136072960.0000       HEAD DEP BOUNDS =           0.1094
            RECHARGE =           0.0000              RECHARGE =           0.0000
          SWIADDTOCH =           0.0000            SWIADDTOCH =           0.0000

           TOTAL OUT =   212247616.0000             TOTAL OUT =           0.1684

            IN - OUT =       -8192.0000              IN - OUT =      -3.9786E-06

 PERCENT DISCREPANCY =          -0.00     PERCENT DISCREPANCY =          -0.00






         TIME SUMMARY AT END OF TIME STEP   20 IN STRESS PERIOD    1
                    SECONDS     MINUTES      HOURS       DAYS        YEARS
                    -----------------------------------------------------------
   TIME STEP LENGTH 6.30720E+07 1.05120E+06  17520.      730.00      1.9986    
 STRESS PERIOD TIME 1.26144E+09 2.10240E+07 3.50400E+05  14600.      39.973    
         TOTAL TIME 1.26144E+09 2.10240E+07 3.50400E+05  14600.      39.973    
1
 
 SOLVING FOR HEAD 
     2 CALLS TO PCG ROUTINE FOR TIME STEP  21 IN STRESS PERIOD    1
    17 TOTAL ITERATIONS

 MAXIMUM HEAD CHANGE FOR EACH ITERATION (1 INDICATES THE FIRST INNER ITERATION):

    HEAD CHANGE    HEAD CHANGE    HEAD CHANGE    HEAD CHANGE    HEAD CHANGE 
   LAYER,ROW,COL  LAYER,ROW,COL  LAYER,ROW,COL  LAYER,ROW,COL  LAYER,ROW,COL
 ---------------------------------------------------------------------------
  1  0.1202      0 -0.1044      0  0.4421      0 -0.3901      0  0.2530E-01
   (  2, 33,  4)  (  2, 59, 34)  (  2, 59, 34)  (  2, 59, 34)  (  2, 59, 34)
  0  0.1626E-01  0  0.2476E-01  0 -0.1584E-01  0 -0.6150E-02  0  0.8035E-02
   (  2, 22, 49)  (  2, 58, 31)  (  2, 58, 31)  (  2, 58, 31)  (  2, 58, 31)
  0  0.1112E-01  0 -0.1214E-01  0  0.1001E-01  0 -0.6215E-02  0  0.2874E-02
   (  2, 59, 34)  (  2, 59, 34)  (  2, 59, 34)  (  2, 59, 34)  (  2, 58, 31)
  0 -0.6533E-03  1 -0.9653E-03
   (  2,  5, 31)  (  2, 58, 31)

 MAXIMUM RESIDUAL FOR EACH ITERATION (1 INDICATES THE FIRST INNER ITERATION):

    RESIDUAL       RESIDUAL       RESIDUAL       RESIDUAL       RESIDUAL    
   LAYER,ROW,COL  LAYER,ROW,COL  LAYER,ROW,COL  LAYER,ROW,COL  LAYER,ROW,COL
 ---------------------------------------------------------------------------
  1 -0.3372E-03  0 -0.3193E-03  0  0.1031E-03  0  0.8974E-04  0  0.6136E-04
   (  1,  9,  2)  (  1,  9,  2)  (  2,  9,  2)  (  2,  9,  2)  (  2,  9,  2)
  0  0.4802E-04  0  0.2926E-04  0 -0.1539E-04  0  0.9862E-05  0  0.7095E-05
   (  2,  9,  2)  (  2,  9,  2)  (  2,  8,  2)  (  2,  8,  3)  (  2,  8,  3)
  0  0.6450E-05  0  0.5421E-05  0  0.4638E-05  0  0.2973E-05  0  0.1582E-05
   (  2,  8,  3)  (  2,  8,  3)  (  2,  8,  3)  (  2,  8,  3)  (  2,  8,  3)
  0 -0.8463E-06  1  0.1336E-05
   (  2,  7,  3)  (  1, 33,  5)



 OUTPUT CONTROL FOR STRESS PERIOD    1   TIME STEP   21
    SAVE HEAD FOR ALL LAYERS
    SAVE DRAWDOWN FOR ALL LAYERS
    SAVE BUDGET
    PRINT BUDGET
 UBDSV2 SAVING "   CONSTANT HEAD" ON UNIT   9 AT TIME STEP 21, STRESS PERIOD   1
 UBDSV1 SAVING "FLOW RIGHT FACE " ON UNIT   9 AT TIME STEP 21, STRESS PERIOD   1
 UBDSV1 SAVING "FLOW FRONT FACE " ON UNIT   9 AT TIME STEP 21, STRESS PERIOD   1
 UBDSV1 SAVING "FLOW LOWER FACE " ON UNIT   9 AT TIME STEP 21, STRESS PERIOD   1
 UBDSV4 SAVING "           WELLS" ON UNIT   9 AT TIME STEP 21, STRESS PERIOD   1
 UBDSV4 SAVING "   RIVER LEAKAGE" ON UNIT   9 AT TIME STEP 21, STRESS PERIOD   1
 UBDSV3 SAVING "              ET" ON UNIT   9 AT TIME STEP 21, STRESS PERIOD   1
 UBDSV4 SAVING " HEAD DEP BOUNDS" ON UNIT   9 AT TIME STEP 21, STRESS PERIOD   1
 UBDSV3 SAVING "        RECHARGE" ON UNIT   9 AT TIME STEP 21, STRESS PERIOD   1
 SOLVING FOR ZETA FOR LAYER     1 ZONE     2
     2 CALLS TO PCG ROUTINE FOR TIME STEP  21 IN STRESS PERIOD    1
     5 TOTAL ITERATIONS

 MAXIMUM HEAD CHANGE FOR EACH ITERATION (1 INDICATES THE FIRST INNER ITERATION):

    HEAD CHANGE    HEAD CHANGE    HEAD CHANGE    HEAD CHANGE    HEAD CHANGE 
   LAYER,ROW,COL  LAYER,ROW,COL  LAYER,ROW,COL  LAYER,ROW,COL  LAYER,ROW,COL
 ---------------------------------------------------------------------------
  1  -4.633      0 -0.1181      0 -0.4587E-02  0 -0.7465E-04  1 -0.2600E-05
   (  1,  9,  2)  (  1, 20,  4)  (  1, 21,  3)  (  1, 19,  4)  (  1, 33,  3)

 MAXIMUM RESIDUAL FOR EACH ITERATION (1 INDICATES THE FIRST INNER ITERATION):

    RESIDUAL       RESIDUAL       RESIDUAL       RESIDUAL       RESIDUAL    
   LAYER,ROW,COL  LAYER,ROW,COL  LAYER,ROW,COL  LAYER,ROW,COL  LAYER,ROW,COL
 ---------------------------------------------------------------------------
  1  0.1175E-04  0  0.4457E-06  0  0.7451E-08  0  0.3307E-09  1  0.1891E-10
   (  1, 20,  4)  (  1, 21,  3)  (  1, 19,  4)  (  1, 33,  3)  (  1, 32,  4)


 SOLVING FOR ZETA FOR LAYER     2 ZONE     2
     2 CALLS TO PCG ROUTINE FOR TIME STEP  21 IN STRESS PERIOD    1
     5 TOTAL ITERATIONS

 MAXIMUM HEAD CHANGE FOR EACH ITERATION (1 INDICATES THE FIRST INNER ITERATION):

    HEAD CHANGE    HEAD CHANGE    HEAD CHANGE    HEAD CHANGE    HEAD CHANGE 
   LAYER,ROW,COL  LAYER,ROW,COL  LAYER,ROW,COL  LAYER,ROW,COL  LAYER,ROW,COL
 ---------------------------------------------------------------------------
  1  -3.540      0 -0.7929E-01  0 -0.5366E-02  0  0.1580E-03  1 -0.6459E-05
   (  1, 33,  4)  (  1, 33,  5)  (  1, 34,  4)  (  1, 28,  6)  (  1, 34,  4)

 MAXIMUM RESIDUAL FOR EACH ITERATION (1 INDICATES THE FIRST INNER ITERATION):

    RESIDUAL       RESIDUAL       RESIDUAL       RESIDUAL       RESIDUAL    
   LAYER,ROW,COL  LAYER,ROW,COL  LAYER,ROW,COL  LAYER,ROW,COL  LAYER,ROW,COL
 ---------------------------------------------------------------------------
  1  0.8690E-05  0  0.8032E-06  0  0.1868E-07  0  0.6330E-09  1  0.2587E-10
   (  1, 33,  5)  (  1, 34,  4)  (  1, 33,  5)  (  1, 34,  4)  (  1, 33,  5)


 UBUDSV SAVING "      ZETASRF  1" ON UNIT170 AT TIME STEP 21, STRESS PERIOD    1


                      VOLUMETRIC SWI ZONE BUDGET FOR ENTIRE MODEL
                     AT END OF TIME STEP   21 IN STRESS PERIOD   1
                                      ZONE     1
  -----------------------------------------------------------------------------------

        CUMULATIVE VOLUMES      L**3       RATES FOR THIS TIME STEP      L**3/T
        ------------------                 ------------------------

              IN:                                      IN:
              ---                                      ---
             BOUNDARIES =   212277472.0000            BOUNDARIES =           0.1606
          CONSTANT HEAD =           0.0000         CONSTANT HEAD =           0.0000
            ZONE CHANGE =    82260136.0000           ZONE CHANGE =       3.6644E-04
       ZONE CHG TIP/TOE =     3650366.2500      ZONE CHG TIP/TOE =           0.0000
            ZONE MIXING =           0.0000           ZONE MIXING =           0.0000

               TOTAL IN =   298187968.0000              TOTAL IN =           0.1610

             OUT:                                     OUT:
             ----                                     ----
             BOUNDARIES =   186285296.0000            BOUNDARIES =           0.1579
          CONSTANT HEAD =           0.0000         CONSTANT HEAD =           0.0000
            ZONE CHANGE =    20641428.0000           ZONE CHANGE =       3.0042E-03
       ZONE CHG TIP/TOE =     3305003.2500      ZONE CHG TIP/TOE =           0.0000
            ZONE MIXING =           0.0000           ZONE MIXING =           0.0000

              TOTAL OUT =   210231728.0000             TOTAL OUT =           0.1609

               IN - OUT =    87956240.0000              IN - OUT =       1.3073E-04

    PERCENT DISCREPANCY =          34.60     PERCENT DISCREPANCY =           0.08



                      VOLUMETRIC SWI ZONE BUDGET FOR ENTIRE MODEL
                     AT END OF TIME STEP   21 IN STRESS PERIOD   1
                                      ZONE     2
  -----------------------------------------------------------------------------------

        CUMULATIVE VOLUMES      L**3       RATES FOR THIS TIME STEP      L**3/T
        ------------------                 ------------------------

              IN:                                      IN:
              ---                                      ---
             BOUNDARIES =           0.0000            BOUNDARIES =           0.0000
          CONSTANT HEAD =           0.0000         CONSTANT HEAD =           0.0000
            ZONE CHANGE =    17455514.0000           ZONE CHANGE =       3.0039E-03
       ZONE CHG TIP/TOE =     3305003.2500      ZONE CHG TIP/TOE =           0.0000
            ZONE MIXING =           0.0000           ZONE MIXING =           0.0000

               TOTAL IN =    20760518.0000              TOTAL IN =       3.0039E-03

             OUT:                                     OUT:
             ----                                     ----
             BOUNDARIES =    26000906.0000            BOUNDARIES =       2.7768E-03
          CONSTANT HEAD =           0.0000         CONSTANT HEAD =           0.0000
            ZONE CHANGE =     1704009.5000           ZONE CHANGE =       2.2513E-04
       ZONE CHG TIP/TOE =     1339987.7500      ZONE CHG TIP/TOE =           0.0000
            ZONE MIXING =           0.0000           ZONE MIXING =           0.0000

              TOTAL OUT =    29044904.0000             TOTAL OUT =       3.0019E-03

               IN - OUT =    -8284386.0000              IN - OUT =       1.9793E-06

    PERCENT DISCREPANCY =         -33.27     PERCENT DISCREPANCY =           0.07


 HEAD WILL BE SAVED ON UNIT   37 AT END OF TIME STEP   21, STRESS PERIOD    1

 DRAWDOWN WILL BE SAVED ON UNIT   38 AT END OF TIME STEP   21, STRESS PERIOD    1
1
  VOLUMETRIC BUDGET FOR ENTIRE MODEL AT END OF TIME STEP   21, STRESS PERIOD   1
  ------------------------------------------------------------------------------

     CUMULATIVE VOLUMES      L**3       RATES FOR THIS TIME STEP      L**3/T
     ------------------                 ------------------------

           IN:                                      IN:
           ---                                      ---
             STORAGE =           0.0000               STORAGE =           0.0000
       CONSTANT HEAD =           0.0000         CONSTANT HEAD =           0.0000
               WELLS =           0.0000                 WELLS =           0.0000
       RIVER LEAKAGE =    46178708.0000         RIVER LEAKAGE =       3.4997E-02
                  ET =           0.0000                    ET =           0.0000
     HEAD DEP BOUNDS =           0.0000       HEAD DEP BOUNDS =           0.0000
            RECHARGE =   176681456.0000              RECHARGE =           0.1334
          SWIADDTOCH =           0.0000            SWIADDTOCH =           0.0000

            TOTAL IN =   222860160.0000              TOTAL IN =           0.1684

          OUT:                                     OUT:
          ----                                     ----
             STORAGE =           0.0000               STORAGE =           0.0000
       CONSTANT HEAD =           0.0000         CONSTANT HEAD =           0.0000
               WELLS =           0.0000                 WELLS =           0.0000
       RIVER LEAKAGE =     9260924.0000         RIVER LEAKAGE =       6.7709E-03
                  ET =    70628096.0000                    ET =       5.2120E-02
     HEAD DEP BOUNDS =   142979856.0000       HEAD DEP BOUNDS =           0.1095
            RECHARGE =           0.0000              RECHARGE =           0.0000
          SWIADDTOCH =           0.0000            SWIADDTOCH =           0.0000

           TOTAL OUT =   222868880.0000             TOTAL OUT =           0.1684

            IN - OUT =       -8720.0000              IN - OUT =      -8.3148E-06

 PERCENT DISCREPANCY =          -0.00     PERCENT DISCREPANCY =          -0.00






         TIME SUMMARY AT END OF TIME STEP   21 IN STRESS PERIOD    1
                    SECONDS     MINUTES      HOURS       DAYS        YEARS
                    -----------------------------------------------------------
   TIME STEP LENGTH 6.30720E+07 1.05120E+06  17520.      730.00      1.9986    
 STRESS PERIOD TIME 1.32451E+09 2.20752E+07 3.67920E+05  15330.      41.971    
         TOTAL TIME 1.32451E+09 2.20752E+07 3.67920E+05  15330.      41.971    
1
 
 SOLVING FOR HEAD 
     2 CALLS TO PCG ROUTINE FOR TIME STEP  22 IN STRESS PERIOD    1
    16 TOTAL ITERATIONS

 MAXIMUM HEAD CHANGE FOR EACH ITERATION (1 INDICATES THE FIRST INNER ITERATION):

    HEAD CHANGE    HEAD CHANGE    HEAD CHANGE    HEAD CHANGE    HEAD CHANGE 
   LAYER,ROW,COL  LAYER,ROW,COL  LAYER,ROW,COL  LAYER,ROW,COL  LAYER,ROW,COL
 ---------------------------------------------------------------------------
  1  0.7789E-01  0  0.2705E-01  0 -0.1077      0  0.1042      0 -0.4116E-01
   (  1,  9,  2)  (  2,  5, 31)  (  2, 59, 34)  (  2, 59, 34)  (  2, 59, 34)
  0  0.3071E-01  0  0.8943E-02  0  0.4545E-02  0 -0.1218E-01  0  0.9305E-02
   (  2, 59, 34)  (  2,  3, 32)  (  2,  3, 32)  (  2, 58, 31)  (  2, 58, 31)
  0  0.1282E-02  0  0.2422E-02  0 -0.5149E-02  0  0.2974E-02  0 -0.4282E-03
   (  2, 20, 52)  (  2, 59, 34)  (  2, 59, 34)  (  2, 59, 34)  (  2, 58, 31)
  1 -0.2691E-03
   (  2, 19, 52)

 MAXIMUM RESIDUAL FOR EACH ITERATION (1 INDICATES THE FIRST INNER ITERATION):

    RESIDUAL       RESIDUAL       RESIDUAL       RESIDUAL       RESIDUAL    
   LAYER,ROW,COL  LAYER,ROW,COL  LAYER,ROW,COL  LAYER,ROW,COL  LAYER,ROW,COL
 ---------------------------------------------------------------------------
  1 -0.2356E-03  0  0.6370E-04  0  0.5134E-04  0  0.4762E-04  0  0.4440E-04
   (  1,  9,  2)  (  2,  9,  2)  (  2,  9,  2)  (  2,  9,  2)  (  2,  9,  2)
  0  0.3482E-04  0 -0.1760E-04  0 -0.1411E-04  0 -0.8701E-05  0  0.6338E-05
   (  2,  9,  2)  (  2,  8,  2)  (  2,  8,  2)  (  2,  8,  2)  (  2,  8,  3)
  0  0.3886E-05  0  0.2426E-05  0  0.2214E-05  0  0.1295E-05  0 -0.7179E-06
   (  2,  8,  3)  (  2,  8,  3)  (  2,  8,  3)  (  2,  8,  3)  (  2,  7,  3)
  1 -0.7079E-06
   (  2,  7,  3)



 OUTPUT CONTROL FOR STRESS PERIOD    1   TIME STEP   22
    SAVE HEAD FOR ALL LAYERS
    SAVE DRAWDOWN FOR ALL LAYERS
    SAVE BUDGET
    PRINT BUDGET
 UBDSV2 SAVING "   CONSTANT HEAD" ON UNIT   9 AT TIME STEP 22, STRESS PERIOD   1
 UBDSV1 SAVING "FLOW RIGHT FACE " ON UNIT   9 AT TIME STEP 22, STRESS PERIOD   1
 UBDSV1 SAVING "FLOW FRONT FACE " ON UNIT   9 AT TIME STEP 22, STRESS PERIOD   1
 UBDSV1 SAVING "FLOW LOWER FACE " ON UNIT   9 AT TIME STEP 22, STRESS PERIOD   1
 UBDSV4 SAVING "           WELLS" ON UNIT   9 AT TIME STEP 22, STRESS PERIOD   1
 UBDSV4 SAVING "   RIVER LEAKAGE" ON UNIT   9 AT TIME STEP 22, STRESS PERIOD   1
 UBDSV3 SAVING "              ET" ON UNIT   9 AT TIME STEP 22, STRESS PERIOD   1
 UBDSV4 SAVING " HEAD DEP BOUNDS" ON UNIT   9 AT TIME STEP 22, STRESS PERIOD   1
 UBDSV3 SAVING "        RECHARGE" ON UNIT   9 AT TIME STEP 22, STRESS PERIOD   1
 SOLVING FOR ZETA FOR LAYER     1 ZONE     2
     2 CALLS TO PCG ROUTINE FOR TIME STEP  22 IN STRESS PERIOD    1
     5 TOTAL ITERATIONS

 MAXIMUM HEAD CHANGE FOR EACH ITERATION (1 INDICATES THE FIRST INNER ITERATION):

    HEAD CHANGE    HEAD CHANGE    HEAD CHANGE    HEAD CHANGE    HEAD CHANGE 
   LAYER,ROW,COL  LAYER,ROW,COL  LAYER,ROW,COL  LAYER,ROW,COL  LAYER,ROW,COL
 ---------------------------------------------------------------------------
  1  -3.193      0 -0.7911E-01  0 -0.3100E-02  0 -0.4069E-04  1 -0.1808E-05
   (  1,  9,  2)  (  1, 20,  4)  (  1, 21,  3)  (  1, 32,  4)  (  1, 33,  3)

 MAXIMUM RESIDUAL FOR EACH ITERATION (1 INDICATES THE FIRST INNER ITERATION):

    RESIDUAL       RESIDUAL       RESIDUAL       RESIDUAL       RESIDUAL    
   LAYER,ROW,COL  LAYER,ROW,COL  LAYER,ROW,COL  LAYER,ROW,COL  LAYER,ROW,COL
 ---------------------------------------------------------------------------
  1  0.7594E-05  0  0.3047E-06  0  0.4004E-08  0  0.2230E-09  1  0.1206E-10
   (  1, 20,  4)  (  1, 21,  3)  (  1, 19,  4)  (  1, 33,  3)  (  1, 32,  4)


 SOLVING FOR ZETA FOR LAYER     2 ZONE     2
     2 CALLS TO PCG ROUTINE FOR TIME STEP  22 IN STRESS PERIOD    1
     5 TOTAL ITERATIONS

 MAXIMUM HEAD CHANGE FOR EACH ITERATION (1 INDICATES THE FIRST INNER ITERATION):

    HEAD CHANGE    HEAD CHANGE    HEAD CHANGE    HEAD CHANGE    HEAD CHANGE 
   LAYER,ROW,COL  LAYER,ROW,COL  LAYER,ROW,COL  LAYER,ROW,COL  LAYER,ROW,COL
 ---------------------------------------------------------------------------
  1  -2.085      0 -0.4863E-01  0  0.2934E-02  0  0.8457E-04  1  0.2494E-05
   (  1, 33,  4)  (  1, 26,  6)  (  1, 33,  5)  (  1, 34,  4)  (  1, 28,  6)

 MAXIMUM RESIDUAL FOR EACH ITERATION (1 INDICATES THE FIRST INNER ITERATION):

    RESIDUAL       RESIDUAL       RESIDUAL       RESIDUAL       RESIDUAL    
   LAYER,ROW,COL  LAYER,ROW,COL  LAYER,ROW,COL  LAYER,ROW,COL  LAYER,ROW,COL
 ---------------------------------------------------------------------------
  1  0.3888E-05  0  0.3876E-06  0 -0.9215E-08  0 -0.1884E-09  1 -0.8761E-11
   (  1, 26,  6)  (  1, 34,  4)  (  1, 34,  4)  (  1, 28,  6)  (  1, 34,  4)


 UBUDSV SAVING "      ZETASRF  1" ON UNIT170 AT TIME STEP 22, STRESS PERIOD    1


                      VOLUMETRIC SWI ZONE BUDGET FOR ENTIRE MODEL
                     AT END OF TIME STEP   22 IN STRESS PERIOD   1
                                      ZONE     1
  -----------------------------------------------------------------------------------

        CUMULATIVE VOLUMES      L**3       RATES FOR THIS TIME STEP      L**3/T
        ------------------                 ------------------------

              IN:                                      IN:
              ---                                      ---
             BOUNDARIES =   222408400.0000            BOUNDARIES =           0.1606
          CONSTANT HEAD =           0.0000         CONSTANT HEAD =           0.0000
            ZONE CHANGE =    82272040.0000           ZONE CHANGE =       1.8873E-04
       ZONE CHG TIP/TOE =     3659095.5000      ZONE CHG TIP/TOE =       1.3840E-04
            ZONE MIXING =           0.0000           ZONE MIXING =           0.0000

               TOTAL IN =   308339520.0000              TOTAL IN =           0.1610

             OUT:                                     OUT:
             ----                                     ----
             BOUNDARIES =   196258144.0000            BOUNDARIES =           0.1581
          CONSTANT HEAD =           0.0000         CONSTANT HEAD =           0.0000
            ZONE CHANGE =    20809388.0000           ZONE CHANGE =       2.6630E-03
       ZONE CHG TIP/TOE =     3313732.5000      ZONE CHG TIP/TOE =       1.3840E-04
            ZONE MIXING =           0.0000           ZONE MIXING =           0.0000

              TOTAL OUT =   220381264.0000             TOTAL OUT =           0.1609

               IN - OUT =    87958256.0000              IN - OUT =       3.2246E-05

    PERCENT DISCREPANCY =          33.27     PERCENT DISCREPANCY =           0.02



                      VOLUMETRIC SWI ZONE BUDGET FOR ENTIRE MODEL
                     AT END OF TIME STEP   22 IN STRESS PERIOD   1
                                      ZONE     2
  -----------------------------------------------------------------------------------

        CUMULATIVE VOLUMES      L**3       RATES FOR THIS TIME STEP      L**3/T
        ------------------                 ------------------------

              IN:                                      IN:
              ---                                      ---
             BOUNDARIES =           0.0000            BOUNDARIES =           0.0000
          CONSTANT HEAD =           0.0000         CONSTANT HEAD =           0.0000
            ZONE CHANGE =    17623400.0000           ZONE CHANGE =       2.6618E-03
       ZONE CHG TIP/TOE =     3313732.5000      ZONE CHG TIP/TOE =       1.3840E-04
            ZONE MIXING =           0.0000           ZONE MIXING =           0.0000

               TOTAL IN =    20937132.0000              TOTAL IN =       2.8002E-03

             OUT:                                     OUT:
             ----                                     ----
             BOUNDARIES =    26159176.0000            BOUNDARIES =       2.5094E-03
          CONSTANT HEAD =           0.0000         CONSTANT HEAD =           0.0000
            ZONE CHANGE =     1713541.1250           ZONE CHANGE =       1.5112E-04
       ZONE CHG TIP/TOE =     1348717.1250      ZONE CHG TIP/TOE =       1.3840E-04
            ZONE MIXING =           0.0000           ZONE MIXING =           0.0000

              TOTAL OUT =    29221434.0000             TOTAL OUT =       2.7989E-03

               IN - OUT =    -8284302.0000              IN - OUT =       1.3507E-06

    PERCENT DISCREPANCY =         -33.03     PERCENT DISCREPANCY =           0.05


 HEAD WILL BE SAVED ON UNIT   37 AT END OF TIME STEP   22, STRESS PERIOD    1

 DRAWDOWN WILL BE SAVED ON UNIT   38 AT END OF TIME STEP   22, STRESS PERIOD    1
1
  VOLUMETRIC BUDGET FOR ENTIRE MODEL AT END OF TIME STEP   22, STRESS PERIOD   1
  ------------------------------------------------------------------------------

     CUMULATIVE VOLUMES      L**3       RATES FOR THIS TIME STEP      L**3/T
     ------------------                 ------------------------

           IN:                                      IN:
           ---                                      ---
             STORAGE =           0.0000               STORAGE =           0.0000
       CONSTANT HEAD =           0.0000         CONSTANT HEAD =           0.0000
               WELLS =           0.0000                 WELLS =           0.0000
       RIVER LEAKAGE =    48386060.0000         RIVER LEAKAGE =       3.4997E-02
                  ET =           0.0000                    ET =           0.0000
     HEAD DEP BOUNDS =           0.0000       HEAD DEP BOUNDS =           0.0000
            RECHARGE =   185094864.0000              RECHARGE =           0.1334
          SWIADDTOCH =           0.0000            SWIADDTOCH =           0.0000

            TOTAL IN =   233480928.0000              TOTAL IN =           0.1684

          OUT:                                     OUT:
          ----                                     ----
             STORAGE =           0.0000               STORAGE =           0.0000
       CONSTANT HEAD =           0.0000         CONSTANT HEAD =           0.0000
               WELLS =           0.0000                 WELLS =           0.0000
       RIVER LEAKAGE =     9687857.0000         RIVER LEAKAGE =       6.7690E-03
                  ET =    73914944.0000                    ET =       5.2113E-02
     HEAD DEP BOUNDS =   149887008.0000       HEAD DEP BOUNDS =           0.1095
            RECHARGE =           0.0000              RECHARGE =           0.0000
          SWIADDTOCH =           0.0000            SWIADDTOCH =           0.0000

           TOTAL OUT =   233489808.0000             TOTAL OUT =           0.1684

            IN - OUT =       -8880.0000              IN - OUT =      -2.8163E-06

 PERCENT DISCREPANCY =          -0.00     PERCENT DISCREPANCY =          -0.00






         TIME SUMMARY AT END OF TIME STEP   22 IN STRESS PERIOD    1
                    SECONDS     MINUTES      HOURS       DAYS        YEARS
                    -----------------------------------------------------------
   TIME STEP LENGTH 6.30720E+07 1.05120E+06  17520.      730.00      1.9986    
 STRESS PERIOD TIME 1.38758E+09 2.31264E+07 3.85440E+05  16060.      43.970    
         TOTAL TIME 1.38758E+09 2.31264E+07 3.85440E+05  16060.      43.970    
1
 
 SOLVING FOR HEAD 
     2 CALLS TO PCG ROUTINE FOR TIME STEP  23 IN STRESS PERIOD    1
    16 TOTAL ITERATIONS

 MAXIMUM HEAD CHANGE FOR EACH ITERATION (1 INDICATES THE FIRST INNER ITERATION):

    HEAD CHANGE    HEAD CHANGE    HEAD CHANGE    HEAD CHANGE    HEAD CHANGE 
   LAYER,ROW,COL  LAYER,ROW,COL  LAYER,ROW,COL  LAYER,ROW,COL  LAYER,ROW,COL
 ---------------------------------------------------------------------------
  1  0.1271      0  0.9153E-01  0 -0.1168      0  0.7479E-01  0 -0.4926E-01
   (  1, 31,  3)  (  2, 59, 34)  (  2, 59, 34)  (  2, 59, 34)  (  2, 59, 34)
  0  0.2166E-01  0 -0.5037E-02  0  0.5125E-02  0 -0.3597E-02  0 -0.1643E-02
   (  2, 58, 31)  (  2,  3, 32)  (  2,  3, 32)  (  2, 58, 31)  (  2,  3, 32)
  0  0.4909E-02  0 -0.5468E-02  0  0.6435E-02  0 -0.3352E-02  0  0.6357E-03
   (  2, 58, 31)  (  2, 59, 34)  (  2, 59, 34)  (  2, 59, 34)  (  2, 59, 34)
  1  0.2061E-03
   (  2,  5, 31)

 MAXIMUM RESIDUAL FOR EACH ITERATION (1 INDICATES THE FIRST INNER ITERATION):

    RESIDUAL       RESIDUAL       RESIDUAL       RESIDUAL       RESIDUAL    
   LAYER,ROW,COL  LAYER,ROW,COL  LAYER,ROW,COL  LAYER,ROW,COL  LAYER,ROW,COL
 ---------------------------------------------------------------------------
  1 -0.3014E-03  0  0.1330E-03  0  0.7413E-04  0  0.7110E-04  0 -0.3348E-04
   (  1, 31,  3)  (  2, 31,  3)  (  2, 31,  3)  (  2, 31,  3)  (  2, 30,  3)
  0  0.2326E-04  0  0.1325E-04  0  0.1018E-04  0  0.7428E-05  0  0.5092E-05
   (  2, 30,  4)  (  2, 30,  4)  (  2, 30,  4)  (  2, 30,  4)  (  2, 30,  4)
  0  0.3057E-05  0 -0.2795E-05  0 -0.1956E-05  0 -0.1786E-05  0 -0.9372E-06
   (  1, 32,  3)  (  2, 29,  4)  (  2, 29,  4)  (  2, 29,  4)  (  2, 29,  4)
  1 -0.7621E-06
   (  2, 29,  4)



 OUTPUT CONTROL FOR STRESS PERIOD    1   TIME STEP   23
    SAVE HEAD FOR ALL LAYERS
    SAVE DRAWDOWN FOR ALL LAYERS
    SAVE BUDGET
    PRINT BUDGET
 UBDSV2 SAVING "   CONSTANT HEAD" ON UNIT   9 AT TIME STEP 23, STRESS PERIOD   1
 UBDSV1 SAVING "FLOW RIGHT FACE " ON UNIT   9 AT TIME STEP 23, STRESS PERIOD   1
 UBDSV1 SAVING "FLOW FRONT FACE " ON UNIT   9 AT TIME STEP 23, STRESS PERIOD   1
 UBDSV1 SAVING "FLOW LOWER FACE " ON UNIT   9 AT TIME STEP 23, STRESS PERIOD   1
 UBDSV4 SAVING "           WELLS" ON UNIT   9 AT TIME STEP 23, STRESS PERIOD   1
 UBDSV4 SAVING "   RIVER LEAKAGE" ON UNIT   9 AT TIME STEP 23, STRESS PERIOD   1
 UBDSV3 SAVING "              ET" ON UNIT   9 AT TIME STEP 23, STRESS PERIOD   1
 UBDSV4 SAVING " HEAD DEP BOUNDS" ON UNIT   9 AT TIME STEP 23, STRESS PERIOD   1
 UBDSV3 SAVING "        RECHARGE" ON UNIT   9 AT TIME STEP 23, STRESS PERIOD   1
 SOLVING FOR ZETA FOR LAYER     1 ZONE     2
     2 CALLS TO PCG ROUTINE FOR TIME STEP  23 IN STRESS PERIOD    1
     5 TOTAL ITERATIONS

 MAXIMUM HEAD CHANGE FOR EACH ITERATION (1 INDICATES THE FIRST INNER ITERATION):

    HEAD CHANGE    HEAD CHANGE    HEAD CHANGE    HEAD CHANGE    HEAD CHANGE 
   LAYER,ROW,COL  LAYER,ROW,COL  LAYER,ROW,COL  LAYER,ROW,COL  LAYER,ROW,COL
 ---------------------------------------------------------------------------
  1  -4.433      0  0.1118      0 -0.4032E-02  0 -0.1329E-03  1  0.2994E-05
   (  1, 31,  3)  (  1, 32,  3)  (  1, 20,  4)  (  1, 21,  3)  (  1, 31,  4)

 MAXIMUM RESIDUAL FOR EACH ITERATION (1 INDICATES THE FIRST INNER ITERATION):

    RESIDUAL       RESIDUAL       RESIDUAL       RESIDUAL       RESIDUAL    
   LAYER,ROW,COL  LAYER,ROW,COL  LAYER,ROW,COL  LAYER,ROW,COL  LAYER,ROW,COL
 ---------------------------------------------------------------------------
  1 -0.1875E-04  0  0.3354E-06  0  0.1336E-07  0 -0.2871E-09  1  0.1307E-10
   (  1, 32,  3)  (  1, 20,  4)  (  1, 21,  3)  (  1, 31,  4)  (  1, 21,  3)


 SOLVING FOR ZETA FOR LAYER     2 ZONE     2
     2 CALLS TO PCG ROUTINE FOR TIME STEP  23 IN STRESS PERIOD    1
     5 TOTAL ITERATIONS

 MAXIMUM HEAD CHANGE FOR EACH ITERATION (1 INDICATES THE FIRST INNER ITERATION):

    HEAD CHANGE    HEAD CHANGE    HEAD CHANGE    HEAD CHANGE    HEAD CHANGE 
   LAYER,ROW,COL  LAYER,ROW,COL  LAYER,ROW,COL  LAYER,ROW,COL  LAYER,ROW,COL
 ---------------------------------------------------------------------------
  1  -1.042      0 -0.3953E-01  0  0.1513E-02  0  0.7016E-04  1  0.3161E-05
   (  1, 33,  4)  (  1, 26,  6)  (  1, 33,  5)  (  1, 34,  4)  (  1, 33,  5)

 MAXIMUM RESIDUAL FOR EACH ITERATION (1 INDICATES THE FIRST INNER ITERATION):

    RESIDUAL       RESIDUAL       RESIDUAL       RESIDUAL       RESIDUAL    
   LAYER,ROW,COL  LAYER,ROW,COL  LAYER,ROW,COL  LAYER,ROW,COL  LAYER,ROW,COL
 ---------------------------------------------------------------------------
  1  0.3166E-05  0  0.1431E-06  0 -0.8204E-08  0 -0.3114E-09  1 -0.1824E-10
   (  1, 25,  6)  (  1, 34,  4)  (  1, 34,  4)  (  1, 33,  5)  (  1, 34,  4)


 UBUDSV SAVING "      ZETASRF  1" ON UNIT170 AT TIME STEP 23, STRESS PERIOD    1


                      VOLUMETRIC SWI ZONE BUDGET FOR ENTIRE MODEL
                     AT END OF TIME STEP   23 IN STRESS PERIOD   1
                                      ZONE     1
  -----------------------------------------------------------------------------------

        CUMULATIVE VOLUMES      L**3       RATES FOR THIS TIME STEP      L**3/T
        ------------------                 ------------------------

              IN:                                      IN:
              ---                                      ---
             BOUNDARIES =   232539472.0000            BOUNDARIES =           0.1606
          CONSTANT HEAD =           0.0000         CONSTANT HEAD =           0.0000
            ZONE CHANGE =    82294616.0000           ZONE CHANGE =       3.5789E-04
       ZONE CHG TIP/TOE =     3667669.7500      ZONE CHG TIP/TOE =       1.3594E-04
            ZONE MIXING =           0.0000           ZONE MIXING =           0.0000

               TOTAL IN =   318501760.0000              TOTAL IN =           0.1611

             OUT:                                     OUT:
             ----                                     ----
             BOUNDARIES =   206254960.0000            BOUNDARIES =           0.1585
          CONSTANT HEAD =           0.0000         CONSTANT HEAD =           0.0000
            ZONE CHANGE =    20963352.0000           ZONE CHANGE =       2.4411E-03
       ZONE CHG TIP/TOE =     3322881.0000      ZONE CHG TIP/TOE =       1.4505E-04
            ZONE MIXING =           0.0000           ZONE MIXING =           0.0000

              TOTAL OUT =   230541184.0000             TOTAL OUT =           0.1611

               IN - OUT =    87960576.0000              IN - OUT =       3.6523E-05

    PERCENT DISCREPANCY =          32.04     PERCENT DISCREPANCY =           0.02



                      VOLUMETRIC SWI ZONE BUDGET FOR ENTIRE MODEL
                     AT END OF TIME STEP   23 IN STRESS PERIOD   1
                                      ZONE     2
  -----------------------------------------------------------------------------------

        CUMULATIVE VOLUMES      L**3       RATES FOR THIS TIME STEP      L**3/T
        ------------------                 ------------------------

              IN:                                      IN:
              ---                                      ---
             BOUNDARIES =           0.0000            BOUNDARIES =           0.0000
          CONSTANT HEAD =           0.0000         CONSTANT HEAD =           0.0000
            ZONE CHANGE =    17776710.0000           ZONE CHANGE =       2.4307E-03
       ZONE CHG TIP/TOE =     3322881.0000      ZONE CHG TIP/TOE =       1.4505E-04
            ZONE MIXING =           0.0000           ZONE MIXING =           0.0000

               TOTAL IN =    21099592.0000              TOTAL IN =       2.5758E-03

             OUT:                                     OUT:
             ----                                     ----
             BOUNDARIES =    26293668.0000            BOUNDARIES =       2.1323E-03
          CONSTANT HEAD =           0.0000         CONSTANT HEAD =           0.0000
            ZONE CHANGE =     1732851.1250           ZONE CHANGE =       3.0616E-04
       ZONE CHG TIP/TOE =     1356717.1250      ZONE CHG TIP/TOE =       1.2684E-04
            ZONE MIXING =           0.0000           ZONE MIXING =           0.0000

              TOTAL OUT =    29383236.0000             TOTAL OUT =       2.5653E-03

               IN - OUT =    -8283644.0000              IN - OUT =       1.0419E-05

    PERCENT DISCREPANCY =         -32.82     PERCENT DISCREPANCY =           0.41


 HEAD WILL BE SAVED ON UNIT   37 AT END OF TIME STEP   23, STRESS PERIOD    1

 DRAWDOWN WILL BE SAVED ON UNIT   38 AT END OF TIME STEP   23, STRESS PERIOD    1
1
  VOLUMETRIC BUDGET FOR ENTIRE MODEL AT END OF TIME STEP   23, STRESS PERIOD   1
  ------------------------------------------------------------------------------

     CUMULATIVE VOLUMES      L**3       RATES FOR THIS TIME STEP      L**3/T
     ------------------                 ------------------------

           IN:                                      IN:
           ---                                      ---
             STORAGE =           0.0000               STORAGE =           0.0000
       CONSTANT HEAD =           0.0000         CONSTANT HEAD =           0.0000
               WELLS =           0.0000                 WELLS =           0.0000
       RIVER LEAKAGE =    50593552.0000         RIVER LEAKAGE =       3.5000E-02
                  ET =           0.0000                    ET =           0.0000
     HEAD DEP BOUNDS =           0.0000       HEAD DEP BOUNDS =           0.0000
            RECHARGE =   193508272.0000              RECHARGE =           0.1334
          SWIADDTOCH =           0.0000            SWIADDTOCH =           0.0000

            TOTAL IN =   244101824.0000              TOTAL IN =           0.1684

          OUT:                                     OUT:
          ----                                     ----
             STORAGE =           0.0000               STORAGE =           0.0000
       CONSTANT HEAD =           0.0000         CONSTANT HEAD =           0.0000
               WELLS =           0.0000                 WELLS =           0.0000
       RIVER LEAKAGE =    10114366.0000         RIVER LEAKAGE =       6.7623E-03
                  ET =    77200904.0000                    ET =       5.2099E-02
     HEAD DEP BOUNDS =   156795648.0000       HEAD DEP BOUNDS =           0.1095
            RECHARGE =           0.0000              RECHARGE =           0.0000
          SWIADDTOCH =           0.0000            SWIADDTOCH =           0.0000

           TOTAL OUT =   244110912.0000             TOTAL OUT =           0.1684

            IN - OUT =       -9088.0000              IN - OUT =      -3.5316E-06

 PERCENT DISCREPANCY =          -0.00     PERCENT DISCREPANCY =          -0.00






         TIME SUMMARY AT END OF TIME STEP   23 IN STRESS PERIOD    1
                    SECONDS     MINUTES      HOURS       DAYS        YEARS
                    -----------------------------------------------------------
   TIME STEP LENGTH 6.30720E+07 1.05120E+06  17520.      730.00      1.9986    
 STRESS PERIOD TIME 1.45066E+09 2.41776E+07 4.02960E+05  16790.      45.969    
         TOTAL TIME 1.45066E+09 2.41776E+07 4.02960E+05  16790.      45.969    
1
 
 SOLVING FOR HEAD 
     2 CALLS TO PCG ROUTINE FOR TIME STEP  24 IN STRESS PERIOD    1
    16 TOTAL ITERATIONS

 MAXIMUM HEAD CHANGE FOR EACH ITERATION (1 INDICATES THE FIRST INNER ITERATION):

    HEAD CHANGE    HEAD CHANGE    HEAD CHANGE    HEAD CHANGE    HEAD CHANGE 
   LAYER,ROW,COL  LAYER,ROW,COL  LAYER,ROW,COL  LAYER,ROW,COL  LAYER,ROW,COL
 ---------------------------------------------------------------------------
  1  0.1307      0 -0.3543      0  0.4287      0 -0.1224      0  0.3683E-01
   (  1, 22,  3)  (  2, 59, 34)  (  2, 59, 34)  (  2, 59, 34)  (  2, 59, 34)
  0  0.5012E-02  0 -0.5864E-02  0  0.6375E-02  0 -0.7650E-02  0  0.5917E-02
   (  2, 22, 49)  (  2, 22, 49)  (  2,  3, 32)  (  2,  3, 32)  (  2, 58, 31)
  0 -0.6825E-02  0  0.1029E-01  0 -0.7979E-02  0 -0.1213E-02  0  0.5162E-03
   (  2, 58, 31)  (  2, 59, 34)  (  2, 59, 34)  (  2, 58, 31)  (  2, 19, 52)
  1  0.4282E-03
   (  2, 58, 31)

 MAXIMUM RESIDUAL FOR EACH ITERATION (1 INDICATES THE FIRST INNER ITERATION):

    RESIDUAL       RESIDUAL       RESIDUAL       RESIDUAL       RESIDUAL    
   LAYER,ROW,COL  LAYER,ROW,COL  LAYER,ROW,COL  LAYER,ROW,COL  LAYER,ROW,COL
 ---------------------------------------------------------------------------
  1  0.3134E-03  0  0.2093E-03  0  0.7123E-04  0  0.6110E-04  0  0.4516E-04
   (  2, 22,  3)  (  2, 22,  3)  (  2, 22,  3)  (  2, 22,  3)  (  2, 22,  3)
  0  0.2968E-04  0  0.2605E-04  0  0.1892E-04  0  0.1260E-04  0  0.7463E-05
   (  2, 21,  4)  (  2, 21,  4)  (  2, 21,  4)  (  2, 21,  4)  (  2, 23,  2)
  0  0.4200E-05  0  0.3603E-05  0 -0.2193E-05  0 -0.1359E-05  0 -0.1060E-05
   (  2, 23,  2)  (  2, 23,  2)  (  2, 23,  3)  (  2, 23,  3)  (  2, 23,  3)
  1 -0.9412E-06
   (  2, 23,  3)



 OUTPUT CONTROL FOR STRESS PERIOD    1   TIME STEP   24
    SAVE HEAD FOR ALL LAYERS
    SAVE DRAWDOWN FOR ALL LAYERS
    SAVE BUDGET
    PRINT BUDGET
 UBDSV2 SAVING "   CONSTANT HEAD" ON UNIT   9 AT TIME STEP 24, STRESS PERIOD   1
 UBDSV1 SAVING "FLOW RIGHT FACE " ON UNIT   9 AT TIME STEP 24, STRESS PERIOD   1
 UBDSV1 SAVING "FLOW FRONT FACE " ON UNIT   9 AT TIME STEP 24, STRESS PERIOD   1
 UBDSV1 SAVING "FLOW LOWER FACE " ON UNIT   9 AT TIME STEP 24, STRESS PERIOD   1
 UBDSV4 SAVING "           WELLS" ON UNIT   9 AT TIME STEP 24, STRESS PERIOD   1
 UBDSV4 SAVING "   RIVER LEAKAGE" ON UNIT   9 AT TIME STEP 24, STRESS PERIOD   1
 UBDSV3 SAVING "              ET" ON UNIT   9 AT TIME STEP 24, STRESS PERIOD   1
 UBDSV4 SAVING " HEAD DEP BOUNDS" ON UNIT   9 AT TIME STEP 24, STRESS PERIOD   1
 UBDSV3 SAVING "        RECHARGE" ON UNIT   9 AT TIME STEP 24, STRESS PERIOD   1
 SOLVING FOR ZETA FOR LAYER     1 ZONE     2
     2 CALLS TO PCG ROUTINE FOR TIME STEP  24 IN STRESS PERIOD    1
     5 TOTAL ITERATIONS

 MAXIMUM HEAD CHANGE FOR EACH ITERATION (1 INDICATES THE FIRST INNER ITERATION):

    HEAD CHANGE    HEAD CHANGE    HEAD CHANGE    HEAD CHANGE    HEAD CHANGE 
   LAYER,ROW,COL  LAYER,ROW,COL  LAYER,ROW,COL  LAYER,ROW,COL  LAYER,ROW,COL
 ---------------------------------------------------------------------------
  1  -5.712      0 -0.3391      0 -0.6728E-02  0 -0.2190E-03  1 -0.9283E-05
   (  1, 22,  3)  (  1, 21,  4)  (  1, 22,  3)  (  1, 31,  4)  (  1, 20,  4)

 MAXIMUM RESIDUAL FOR EACH ITERATION (1 INDICATES THE FIRST INNER ITERATION):

    RESIDUAL       RESIDUAL       RESIDUAL       RESIDUAL       RESIDUAL    
   LAYER,ROW,COL  LAYER,ROW,COL  LAYER,ROW,COL  LAYER,ROW,COL  LAYER,ROW,COL
 ---------------------------------------------------------------------------
  1  0.3421E-04  0 -0.7206E-06  0  0.2467E-07  0  0.8708E-09  1  0.6721E-10
   (  1, 21,  4)  (  1, 31,  3)  (  1, 31,  4)  (  1, 32,  3)  (  1, 31,  4)


 SOLVING FOR ZETA FOR LAYER     2 ZONE     2
     2 CALLS TO PCG ROUTINE FOR TIME STEP  24 IN STRESS PERIOD    1
     5 TOTAL ITERATIONS

 MAXIMUM HEAD CHANGE FOR EACH ITERATION (1 INDICATES THE FIRST INNER ITERATION):

    HEAD CHANGE    HEAD CHANGE    HEAD CHANGE    HEAD CHANGE    HEAD CHANGE 
   LAYER,ROW,COL  LAYER,ROW,COL  LAYER,ROW,COL  LAYER,ROW,COL  LAYER,ROW,COL
 ---------------------------------------------------------------------------
  1  -1.732      0 -0.8428E-01  0 -0.1259E-02  0  0.3323E-04  1  0.2735E-05
   (  1, 28,  5)  (  1, 27,  6)  (  1, 27,  5)  (  1, 34,  4)  (  1, 33,  5)

 MAXIMUM RESIDUAL FOR EACH ITERATION (1 INDICATES THE FIRST INNER ITERATION):

    RESIDUAL       RESIDUAL       RESIDUAL       RESIDUAL       RESIDUAL    
   LAYER,ROW,COL  LAYER,ROW,COL  LAYER,ROW,COL  LAYER,ROW,COL  LAYER,ROW,COL
 ---------------------------------------------------------------------------
  1  0.6660E-05  0  0.1286E-06  0 -0.3825E-08  0 -0.2914E-09  1 -0.2479E-10
   (  1, 27,  6)  (  1, 27,  5)  (  1, 34,  4)  (  1, 33,  5)  (  1, 34,  4)


 UBUDSV SAVING "      ZETASRF  1" ON UNIT170 AT TIME STEP 24, STRESS PERIOD    1


                      VOLUMETRIC SWI ZONE BUDGET FOR ENTIRE MODEL
                     AT END OF TIME STEP   24 IN STRESS PERIOD   1
                                      ZONE     1
  -----------------------------------------------------------------------------------

        CUMULATIVE VOLUMES      L**3       RATES FOR THIS TIME STEP      L**3/T
        ------------------                 ------------------------

              IN:                                      IN:
              ---                                      ---
             BOUNDARIES =   242671824.0000            BOUNDARIES =           0.1606
          CONSTANT HEAD =           0.0000         CONSTANT HEAD =           0.0000
            ZONE CHANGE =    82318888.0000           ZONE CHANGE =       3.8487E-04
       ZONE CHG TIP/TOE =     3683669.7500      ZONE CHG TIP/TOE =       2.5368E-04
            ZONE MIXING =           0.0000           ZONE MIXING =           0.0000

               TOTAL IN =   328674368.0000              TOTAL IN =           0.1613

             OUT:                                     OUT:
             ----                                     ----
             BOUNDARIES =   216261744.0000            BOUNDARIES =           0.1587
          CONSTANT HEAD =           0.0000         CONSTANT HEAD =           0.0000
            ZONE CHANGE =    21109210.0000           ZONE CHANGE =       2.3126E-03
       ZONE CHG TIP/TOE =     3338881.0000      ZONE CHG TIP/TOE =       2.5368E-04
            ZONE MIXING =           0.0000           ZONE MIXING =           0.0000

              TOTAL OUT =   240709840.0000             TOTAL OUT =           0.1612

               IN - OUT =    87964528.0000              IN - OUT =       6.3241E-05

    PERCENT DISCREPANCY =          30.90     PERCENT DISCREPANCY =           0.04



                      VOLUMETRIC SWI ZONE BUDGET FOR ENTIRE MODEL
                     AT END OF TIME STEP   24 IN STRESS PERIOD   1
                                      ZONE     2
  -----------------------------------------------------------------------------------

        CUMULATIVE VOLUMES      L**3       RATES FOR THIS TIME STEP      L**3/T
        ------------------                 ------------------------

              IN:                                      IN:
              ---                                      ---
             BOUNDARIES =           0.0000            BOUNDARIES =           0.0000
          CONSTANT HEAD =           0.0000         CONSTANT HEAD =           0.0000
            ZONE CHANGE =    17922554.0000           ZONE CHANGE =       2.3123E-03
       ZONE CHG TIP/TOE =     3338881.0000      ZONE CHG TIP/TOE =       2.5368E-04
            ZONE MIXING =           0.0000           ZONE MIXING =           0.0000

               TOTAL IN =    21261436.0000              TOTAL IN =       2.5660E-03

             OUT:                                     OUT:
             ----                                     ----
             BOUNDARIES =    26419520.0000            BOUNDARIES =       1.9954E-03
          CONSTANT HEAD =           0.0000         CONSTANT HEAD =           0.0000
            ZONE CHANGE =     1752762.1250           ZONE CHANGE =       3.1569E-04
       ZONE CHG TIP/TOE =     1372717.1250      ZONE CHG TIP/TOE =       2.5368E-04
            ZONE MIXING =           0.0000           ZONE MIXING =           0.0000

              TOTAL OUT =    29545000.0000             TOTAL OUT =       2.5647E-03

               IN - OUT =    -8283564.0000              IN - OUT =       1.2999E-06

    PERCENT DISCREPANCY =         -32.61     PERCENT DISCREPANCY =           0.05


 HEAD WILL BE SAVED ON UNIT   37 AT END OF TIME STEP   24, STRESS PERIOD    1

 DRAWDOWN WILL BE SAVED ON UNIT   38 AT END OF TIME STEP   24, STRESS PERIOD    1
1
  VOLUMETRIC BUDGET FOR ENTIRE MODEL AT END OF TIME STEP   24, STRESS PERIOD   1
  ------------------------------------------------------------------------------

     CUMULATIVE VOLUMES      L**3       RATES FOR THIS TIME STEP      L**3/T
     ------------------                 ------------------------

           IN:                                      IN:
           ---                                      ---
             STORAGE =           0.0000               STORAGE =           0.0000
       CONSTANT HEAD =           0.0000         CONSTANT HEAD =           0.0000
               WELLS =           0.0000                 WELLS =           0.0000
       RIVER LEAKAGE =    52801660.0000         RIVER LEAKAGE =       3.5009E-02
                  ET =           0.0000                    ET =           0.0000
     HEAD DEP BOUNDS =           0.0000       HEAD DEP BOUNDS =           0.0000
            RECHARGE =   201921680.0000              RECHARGE =           0.1334
          SWIADDTOCH =           0.0000            SWIADDTOCH =           0.0000

            TOTAL IN =   254723344.0000              TOTAL IN =           0.1684

          OUT:                                     OUT:
          ----                                     ----
             STORAGE =           0.0000               STORAGE =           0.0000
       CONSTANT HEAD =           0.0000         CONSTANT HEAD =           0.0000
               WELLS =           0.0000                 WELLS =           0.0000
       RIVER LEAKAGE =    10539960.0000         RIVER LEAKAGE =       6.7478E-03
                  ET =    80484064.0000                    ET =       5.2054E-02
     HEAD DEP BOUNDS =   163708672.0000       HEAD DEP BOUNDS =           0.1096
            RECHARGE =           0.0000              RECHARGE =           0.0000
          SWIADDTOCH =           0.0000            SWIADDTOCH =           0.0000

           TOTAL OUT =   254732704.0000             TOTAL OUT =           0.1684

            IN - OUT =       -9360.0000              IN - OUT =      -4.4107E-06

 PERCENT DISCREPANCY =          -0.00     PERCENT DISCREPANCY =          -0.00






         TIME SUMMARY AT END OF TIME STEP   24 IN STRESS PERIOD    1
                    SECONDS     MINUTES      HOURS       DAYS        YEARS
                    -----------------------------------------------------------
   TIME STEP LENGTH 6.30720E+07 1.05120E+06  17520.      730.00      1.9986    
 STRESS PERIOD TIME 1.51373E+09 2.52288E+07 4.20480E+05  17520.      47.967    
         TOTAL TIME 1.51373E+09 2.52288E+07 4.20480E+05  17520.      47.967    
1
 
 SOLVING FOR HEAD 
     2 CALLS TO PCG ROUTINE FOR TIME STEP  25 IN STRESS PERIOD    1
    16 TOTAL ITERATIONS

 MAXIMUM HEAD CHANGE FOR EACH ITERATION (1 INDICATES THE FIRST INNER ITERATION):

    HEAD CHANGE    HEAD CHANGE    HEAD CHANGE    HEAD CHANGE    HEAD CHANGE 
   LAYER,ROW,COL  LAYER,ROW,COL  LAYER,ROW,COL  LAYER,ROW,COL  LAYER,ROW,COL
 ---------------------------------------------------------------------------
  1  0.1323      0 -0.3876E-01  0 -0.1319      0  0.1764      0 -0.6118E-01
   (  2, 15,  4)  (  2, 19, 52)  (  2, 59, 34)  (  2, 59, 34)  (  2, 59, 34)
  0  0.5071E-01  0 -0.3142E-01  0 -0.5352E-02  0 -0.4381E-02  0  0.5101E-02
   (  2, 58, 31)  (  2, 58, 31)  (  2, 58, 31)  (  2,  3, 32)  (  2, 58, 31)
  0 -0.1932E-02  0  0.1997E-02  0 -0.1039E-01  0  0.1023E-01  0 -0.9136E-03
   (  2, 19, 52)  (  2, 59, 34)  (  2, 59, 34)  (  2, 59, 34)  (  2, 59, 34)
  1 -0.3658E-03
   (  2,  5, 31)

 MAXIMUM RESIDUAL FOR EACH ITERATION (1 INDICATES THE FIRST INNER ITERATION):

    RESIDUAL       RESIDUAL       RESIDUAL       RESIDUAL       RESIDUAL    
   LAYER,ROW,COL  LAYER,ROW,COL  LAYER,ROW,COL  LAYER,ROW,COL  LAYER,ROW,COL
 ---------------------------------------------------------------------------
  1 -0.3527E-03  0 -0.3371E-03  0  0.1095E-03  0  0.1055E-03  0  0.4118E-04
   (  1, 11,  2)  (  1, 11,  2)  (  2, 11,  2)  (  2, 11,  2)  (  2, 11,  2)
  0 -0.2783E-04  0 -0.1552E-04  0 -0.1313E-04  0  0.1047E-04  0  0.6009E-05
   (  2, 10,  2)  (  2, 10,  2)  (  2, 10,  2)  (  2, 10,  3)  (  2, 10,  3)
  0  0.5146E-05  0  0.3106E-05  0  0.2433E-05  0 -0.1772E-05  0 -0.1038E-05
   (  2, 10,  3)  (  2, 10,  3)  (  2, 10,  3)  (  1, 23,  2)  (  2,  9,  3)
  1  0.9489E-06
   (  1, 15,  5)



 OUTPUT CONTROL FOR STRESS PERIOD    1   TIME STEP   25
    SAVE HEAD FOR ALL LAYERS
    SAVE DRAWDOWN FOR ALL LAYERS
    SAVE BUDGET
    PRINT BUDGET
 UBDSV2 SAVING "   CONSTANT HEAD" ON UNIT   9 AT TIME STEP 25, STRESS PERIOD   1
 UBDSV1 SAVING "FLOW RIGHT FACE " ON UNIT   9 AT TIME STEP 25, STRESS PERIOD   1
 UBDSV1 SAVING "FLOW FRONT FACE " ON UNIT   9 AT TIME STEP 25, STRESS PERIOD   1
 UBDSV1 SAVING "FLOW LOWER FACE " ON UNIT   9 AT TIME STEP 25, STRESS PERIOD   1
 UBDSV4 SAVING "           WELLS" ON UNIT   9 AT TIME STEP 25, STRESS PERIOD   1
 UBDSV4 SAVING "   RIVER LEAKAGE" ON UNIT   9 AT TIME STEP 25, STRESS PERIOD   1
 UBDSV3 SAVING "              ET" ON UNIT   9 AT TIME STEP 25, STRESS PERIOD   1
 UBDSV4 SAVING " HEAD DEP BOUNDS" ON UNIT   9 AT TIME STEP 25, STRESS PERIOD   1
 UBDSV3 SAVING "        RECHARGE" ON UNIT   9 AT TIME STEP 25, STRESS PERIOD   1
 SOLVING FOR ZETA FOR LAYER     1 ZONE     2
     2 CALLS TO PCG ROUTINE FOR TIME STEP  25 IN STRESS PERIOD    1
     5 TOTAL ITERATIONS

 MAXIMUM HEAD CHANGE FOR EACH ITERATION (1 INDICATES THE FIRST INNER ITERATION):

    HEAD CHANGE    HEAD CHANGE    HEAD CHANGE    HEAD CHANGE    HEAD CHANGE 
   LAYER,ROW,COL  LAYER,ROW,COL  LAYER,ROW,COL  LAYER,ROW,COL  LAYER,ROW,COL
 ---------------------------------------------------------------------------
  1  -6.213      0 -0.2471      0 -0.7529E-02  0 -0.1519E-03  1 -0.5986E-05
   (  1, 11,  2)  (  1, 21,  4)  (  1, 22,  3)  (  1, 20,  4)  (  1, 32,  3)

 MAXIMUM RESIDUAL FOR EACH ITERATION (1 INDICATES THE FIRST INNER ITERATION):

    RESIDUAL       RESIDUAL       RESIDUAL       RESIDUAL       RESIDUAL    
   LAYER,ROW,COL  LAYER,ROW,COL  LAYER,ROW,COL  LAYER,ROW,COL  LAYER,ROW,COL
 ---------------------------------------------------------------------------
  1  0.2515E-04  0  0.7313E-06  0  0.1520E-07  0  0.7430E-09  1  0.4982E-10
   (  1, 21,  4)  (  1, 22,  3)  (  1, 20,  4)  (  1, 32,  3)  (  1, 31,  4)


 SOLVING FOR ZETA FOR LAYER     2 ZONE     2
     2 CALLS TO PCG ROUTINE FOR TIME STEP  25 IN STRESS PERIOD    1
     5 TOTAL ITERATIONS

 MAXIMUM HEAD CHANGE FOR EACH ITERATION (1 INDICATES THE FIRST INNER ITERATION):

    HEAD CHANGE    HEAD CHANGE    HEAD CHANGE    HEAD CHANGE    HEAD CHANGE 
   LAYER,ROW,COL  LAYER,ROW,COL  LAYER,ROW,COL  LAYER,ROW,COL  LAYER,ROW,COL
 ---------------------------------------------------------------------------
  1  -4.377      0 -0.4589E-01  0 -0.1832E-02  0  0.3321E-04  1  0.2443E-05
   (  1, 15,  4)  (  1, 27,  6)  (  1, 28,  5)  (  1, 33,  5)  (  1, 34,  4)

 MAXIMUM RESIDUAL FOR EACH ITERATION (1 INDICATES THE FIRST INNER ITERATION):

    RESIDUAL       RESIDUAL       RESIDUAL       RESIDUAL       RESIDUAL    
   LAYER,ROW,COL  LAYER,ROW,COL  LAYER,ROW,COL  LAYER,ROW,COL  LAYER,ROW,COL
 ---------------------------------------------------------------------------
  1  0.3434E-05  0  0.1611E-06  0 -0.3481E-08  0 -0.2716E-09  1 -0.2173E-10
   (  1, 27,  6)  (  1, 28,  5)  (  1, 33,  5)  (  1, 34,  4)  (  1, 33,  5)


 UBUDSV SAVING "      ZETASRF  1" ON UNIT170 AT TIME STEP 25, STRESS PERIOD    1


                      VOLUMETRIC SWI ZONE BUDGET FOR ENTIRE MODEL
                     AT END OF TIME STEP   25 IN STRESS PERIOD   1
                                      ZONE     1
  -----------------------------------------------------------------------------------

        CUMULATIVE VOLUMES      L**3       RATES FOR THIS TIME STEP      L**3/T
        ------------------                 ------------------------

              IN:                                      IN:
              ---                                      ---
             BOUNDARIES =   252805424.0000            BOUNDARIES =           0.1607
          CONSTANT HEAD =           0.0000         CONSTANT HEAD =           0.0000
            ZONE CHANGE =    82353656.0000           ZONE CHANGE =       5.5124E-04
       ZONE CHG TIP/TOE =     3683967.5000      ZONE CHG TIP/TOE =       4.7214E-06
            ZONE MIXING =           0.0000           ZONE MIXING =           0.0000

               TOTAL IN =   338843040.0000              TOTAL IN =           0.1612

             OUT:                                     OUT:
             ----                                     ----
             BOUNDARIES =   226277472.0000            BOUNDARIES =           0.1588
          CONSTANT HEAD =           0.0000         CONSTANT HEAD =           0.0000
            ZONE CHANGE =    21254846.0000           ZONE CHANGE =       2.3090E-03
       ZONE CHG TIP/TOE =     3339030.0000      ZONE CHG TIP/TOE =       2.3607E-06
            ZONE MIXING =           0.0000           ZONE MIXING =           0.0000

              TOTAL OUT =   250871344.0000             TOTAL OUT =           0.1611

               IN - OUT =    87971696.0000              IN - OUT =       1.1323E-04

    PERCENT DISCREPANCY =          29.84     PERCENT DISCREPANCY =           0.07



                      VOLUMETRIC SWI ZONE BUDGET FOR ENTIRE MODEL
                     AT END OF TIME STEP   25 IN STRESS PERIOD   1
                                      ZONE     2
  -----------------------------------------------------------------------------------

        CUMULATIVE VOLUMES      L**3       RATES FOR THIS TIME STEP      L**3/T
        ------------------                 ------------------------

              IN:                                      IN:
              ---                                      ---
             BOUNDARIES =           0.0000            BOUNDARIES =           0.0000
          CONSTANT HEAD =           0.0000         CONSTANT HEAD =           0.0000
            ZONE CHANGE =    18068188.0000           ZONE CHANGE =       2.3090E-03
       ZONE CHG TIP/TOE =     3339030.0000      ZONE CHG TIP/TOE =       2.3607E-06
            ZONE MIXING =           0.0000           ZONE MIXING =           0.0000

               TOTAL IN =    21407218.0000              TOTAL IN =       2.3114E-03

             OUT:                                     OUT:
             ----                                     ----
             BOUNDARIES =    26537688.0000            BOUNDARIES =       1.8735E-03
          CONSTANT HEAD =           0.0000         CONSTANT HEAD =           0.0000
            ZONE CHANGE =     1780221.3750           ZONE CHANGE =       4.3536E-04
       ZONE CHG TIP/TOE =     1373014.8750      ZONE CHG TIP/TOE =       4.7214E-06
            ZONE MIXING =           0.0000           ZONE MIXING =           0.0000

              TOTAL OUT =    29690924.0000             TOTAL OUT =       2.3136E-03

               IN - OUT =    -8283706.0000              IN - OUT =      -2.2610E-06

    PERCENT DISCREPANCY =         -32.42     PERCENT DISCREPANCY =          -0.10


 HEAD WILL BE SAVED ON UNIT   37 AT END OF TIME STEP   25, STRESS PERIOD    1

 DRAWDOWN WILL BE SAVED ON UNIT   38 AT END OF TIME STEP   25, STRESS PERIOD    1
1
  VOLUMETRIC BUDGET FOR ENTIRE MODEL AT END OF TIME STEP   25, STRESS PERIOD   1
  ------------------------------------------------------------------------------

     CUMULATIVE VOLUMES      L**3       RATES FOR THIS TIME STEP      L**3/T
     ------------------                 ------------------------

           IN:                                      IN:
           ---                                      ---
             STORAGE =           0.0000               STORAGE =           0.0000
       CONSTANT HEAD =           0.0000         CONSTANT HEAD =           0.0000
               WELLS =           0.0000                 WELLS =           0.0000
       RIVER LEAKAGE =    55009832.0000         RIVER LEAKAGE =       3.5010E-02
                  ET =           0.0000                    ET =           0.0000
     HEAD DEP BOUNDS =           0.0000       HEAD DEP BOUNDS =           0.0000
            RECHARGE =   210335088.0000              RECHARGE =           0.1334
          SWIADDTOCH =           0.0000            SWIADDTOCH =           0.0000

            TOTAL IN =   265344928.0000              TOTAL IN =           0.1684

          OUT:                                     OUT:
          ----                                     ----
             STORAGE =           0.0000               STORAGE =           0.0000
       CONSTANT HEAD =           0.0000         CONSTANT HEAD =           0.0000
               WELLS =           0.0000                 WELLS =           0.0000
       RIVER LEAKAGE =    10965349.0000         RIVER LEAKAGE =       6.7445E-03
                  ET =    83760544.0000                    ET =       5.1948E-02
     HEAD DEP BOUNDS =   170628688.0000       HEAD DEP BOUNDS =           0.1097
            RECHARGE =           0.0000              RECHARGE =           0.0000
          SWIADDTOCH =           0.0000            SWIADDTOCH =           0.0000

           TOTAL OUT =   265354592.0000             TOTAL OUT =           0.1684

            IN - OUT =       -9664.0000              IN - OUT =      -4.8727E-06

 PERCENT DISCREPANCY =          -0.00     PERCENT DISCREPANCY =          -0.00






         TIME SUMMARY AT END OF TIME STEP   25 IN STRESS PERIOD    1
                    SECONDS     MINUTES      HOURS       DAYS        YEARS
                    -----------------------------------------------------------
   TIME STEP LENGTH 6.30720E+07 1.05120E+06  17520.      730.00      1.9986    
 STRESS PERIOD TIME 1.57680E+09 2.62800E+07 4.38000E+05  18250.      49.966    
         TOTAL TIME 1.57680E+09 2.62800E+07 4.38000E+05  18250.      49.966    
1
 
 SOLVING FOR HEAD 
     2 CALLS TO PCG ROUTINE FOR TIME STEP  26 IN STRESS PERIOD    1
    16 TOTAL ITERATIONS

 MAXIMUM HEAD CHANGE FOR EACH ITERATION (1 INDICATES THE FIRST INNER ITERATION):

    HEAD CHANGE    HEAD CHANGE    HEAD CHANGE    HEAD CHANGE    HEAD CHANGE 
   LAYER,ROW,COL  LAYER,ROW,COL  LAYER,ROW,COL  LAYER,ROW,COL  LAYER,ROW,COL
 ---------------------------------------------------------------------------
  1  0.1173      0  0.4908      0 -0.4830      0  0.2667E-01  0 -0.9138E-02
   (  1, 11,  2)  (  2, 59, 34)  (  2, 59, 34)  (  2,  5, 31)  (  2, 19, 52)
  0  0.6811E-02  0 -0.6626E-02  0 -0.7620E-02  0  0.7278E-02  0  0.6898E-02
   (  2, 58, 31)  (  2, 22, 49)  (  2, 58, 31)  (  2,  3, 32)  (  2, 58, 31)
  0  0.1271E-01  0 -0.1293E-01  0  0.1500E-02  0  0.2596E-02  0  0.4185E-03
   (  2, 59, 34)  (  2, 59, 34)  (  2, 59, 34)  (  2, 58, 31)  (  2, 19, 52)
  1 -0.3400E-03
   (  2, 19, 52)

 MAXIMUM RESIDUAL FOR EACH ITERATION (1 INDICATES THE FIRST INNER ITERATION):

    RESIDUAL       RESIDUAL       RESIDUAL       RESIDUAL       RESIDUAL    
   LAYER,ROW,COL  LAYER,ROW,COL  LAYER,ROW,COL  LAYER,ROW,COL  LAYER,ROW,COL
 ---------------------------------------------------------------------------
  1 -0.2578E-03  0 -0.1918E-03  0 -0.6664E-04  0 -0.5335E-04  0 -0.5108E-04
   (  1, 11,  2)  (  1, 11,  2)  (  2, 10,  2)  (  2, 10,  2)  (  2, 10,  2)
  0 -0.2540E-04  0 -0.2022E-04  0 -0.1478E-04  0 -0.1115E-04  0 -0.7198E-05
   (  2, 10,  2)  (  2, 10,  2)  (  1, 10,  3)  (  1, 10,  3)  (  1, 10,  3)
  0 -0.5595E-05  0 -0.5083E-05  0 -0.2435E-05  0 -0.1544E-05  0 -0.1285E-05
   (  1, 10,  3)  (  1, 10,  3)  (  1, 10,  3)  (  1, 10,  3)  (  1, 10,  3)
  1  0.1457E-05
   (  1, 27,  8)



 OUTPUT CONTROL FOR STRESS PERIOD    1   TIME STEP   26
    SAVE HEAD FOR ALL LAYERS
    SAVE DRAWDOWN FOR ALL LAYERS
    SAVE BUDGET
    PRINT BUDGET
 UBDSV2 SAVING "   CONSTANT HEAD" ON UNIT   9 AT TIME STEP 26, STRESS PERIOD   1
 UBDSV1 SAVING "FLOW RIGHT FACE " ON UNIT   9 AT TIME STEP 26, STRESS PERIOD   1
 UBDSV1 SAVING "FLOW FRONT FACE " ON UNIT   9 AT TIME STEP 26, STRESS PERIOD   1
 UBDSV1 SAVING "FLOW LOWER FACE " ON UNIT   9 AT TIME STEP 26, STRESS PERIOD   1
 UBDSV4 SAVING "           WELLS" ON UNIT   9 AT TIME STEP 26, STRESS PERIOD   1
 UBDSV4 SAVING "   RIVER LEAKAGE" ON UNIT   9 AT TIME STEP 26, STRESS PERIOD   1
 UBDSV3 SAVING "              ET" ON UNIT   9 AT TIME STEP 26, STRESS PERIOD   1
 UBDSV4 SAVING " HEAD DEP BOUNDS" ON UNIT   9 AT TIME STEP 26, STRESS PERIOD   1
 UBDSV3 SAVING "        RECHARGE" ON UNIT   9 AT TIME STEP 26, STRESS PERIOD   1
 SOLVING FOR ZETA FOR LAYER     1 ZONE     2
     2 CALLS TO PCG ROUTINE FOR TIME STEP  26 IN STRESS PERIOD    1
     5 TOTAL ITERATIONS

 MAXIMUM HEAD CHANGE FOR EACH ITERATION (1 INDICATES THE FIRST INNER ITERATION):

    HEAD CHANGE    HEAD CHANGE    HEAD CHANGE    HEAD CHANGE    HEAD CHANGE 
   LAYER,ROW,COL  LAYER,ROW,COL  LAYER,ROW,COL  LAYER,ROW,COL  LAYER,ROW,COL
 ---------------------------------------------------------------------------
  1  -4.439      0 -0.1690      0 -0.4946E-02  0 -0.9951E-04  1 -0.3637E-05
   (  1, 11,  2)  (  1, 21,  4)  (  1, 22,  3)  (  1, 20,  4)  (  1, 32,  3)

 MAXIMUM RESIDUAL FOR EACH ITERATION (1 INDICATES THE FIRST INNER ITERATION):

    RESIDUAL       RESIDUAL       RESIDUAL       RESIDUAL       RESIDUAL    
   LAYER,ROW,COL  LAYER,ROW,COL  LAYER,ROW,COL  LAYER,ROW,COL  LAYER,ROW,COL
 ---------------------------------------------------------------------------
  1  0.1711E-04  0  0.4727E-06  0  0.9805E-08  0  0.4432E-09  1  0.2726E-10
   (  1, 21,  4)  (  1, 22,  3)  (  1, 20,  4)  (  1, 32,  3)  (  1, 31,  4)


 SOLVING FOR ZETA FOR LAYER     2 ZONE     2
     2 CALLS TO PCG ROUTINE FOR TIME STEP  26 IN STRESS PERIOD    1
     5 TOTAL ITERATIONS

 MAXIMUM HEAD CHANGE FOR EACH ITERATION (1 INDICATES THE FIRST INNER ITERATION):

    HEAD CHANGE    HEAD CHANGE    HEAD CHANGE    HEAD CHANGE    HEAD CHANGE 
   LAYER,ROW,COL  LAYER,ROW,COL  LAYER,ROW,COL  LAYER,ROW,COL  LAYER,ROW,COL
 ---------------------------------------------------------------------------
  1  -2.552      0 -0.8933E-01  0 -0.2572E-02  0  0.4321E-04  1  0.1878E-05
   (  1, 15,  4)  (  1, 26,  6)  (  1, 27,  5)  (  1, 33,  5)  (  1, 34,  4)

 MAXIMUM RESIDUAL FOR EACH ITERATION (1 INDICATES THE FIRST INNER ITERATION):

    RESIDUAL       RESIDUAL       RESIDUAL       RESIDUAL       RESIDUAL    
   LAYER,ROW,COL  LAYER,ROW,COL  LAYER,ROW,COL  LAYER,ROW,COL  LAYER,ROW,COL
 ---------------------------------------------------------------------------
  1  0.7111E-05  0  0.2530E-06  0 -0.4746E-08  0 -0.2033E-09  1 -0.1559E-10
   (  1, 26,  6)  (  1, 27,  5)  (  1, 33,  5)  (  1, 34,  4)  (  1, 33,  5)


 UBUDSV SAVING "      ZETASRF  1" ON UNIT170 AT TIME STEP 26, STRESS PERIOD    1


                      VOLUMETRIC SWI ZONE BUDGET FOR ENTIRE MODEL
                     AT END OF TIME STEP   26 IN STRESS PERIOD   1
                                      ZONE     1
  -----------------------------------------------------------------------------------

        CUMULATIVE VOLUMES      L**3       RATES FOR THIS TIME STEP      L**3/T
        ------------------                 ------------------------

              IN:                                      IN:
              ---                                      ---
             BOUNDARIES =   262940176.0000            BOUNDARIES =           0.1607
          CONSTANT HEAD =           0.0000         CONSTANT HEAD =           0.0000
            ZONE CHANGE =    82372232.0000           ZONE CHANGE =       2.9456E-04
       ZONE CHG TIP/TOE =     3684414.7500      ZONE CHG TIP/TOE =       7.0892E-06
            ZONE MIXING =           0.0000           ZONE MIXING =           0.0000

               TOTAL IN =   348996832.0000              TOTAL IN =           0.1610

             OUT:                                     OUT:
             ----                                     ----
             BOUNDARIES =   236303296.0000            BOUNDARIES =           0.1590
          CONSTANT HEAD =           0.0000         CONSTANT HEAD =           0.0000
            ZONE CHANGE =    21378768.0000           ZONE CHANGE =       1.9648E-03
       ZONE CHG TIP/TOE =     3339924.2500      ZONE CHG TIP/TOE =       1.4178E-05
            ZONE MIXING =           0.0000           ZONE MIXING =           0.0000

              TOTAL OUT =   261021984.0000             TOTAL OUT =           0.1609

               IN - OUT =    87974848.0000              IN - OUT =       4.9680E-05

    PERCENT DISCREPANCY =          28.84     PERCENT DISCREPANCY =           0.03



                      VOLUMETRIC SWI ZONE BUDGET FOR ENTIRE MODEL
                     AT END OF TIME STEP   26 IN STRESS PERIOD   1
                                      ZONE     2
  -----------------------------------------------------------------------------------

        CUMULATIVE VOLUMES      L**3       RATES FOR THIS TIME STEP      L**3/T
        ------------------                 ------------------------

              IN:                                      IN:
              ---                                      ---
             BOUNDARIES =           0.0000            BOUNDARIES =           0.0000
          CONSTANT HEAD =           0.0000         CONSTANT HEAD =           0.0000
            ZONE CHANGE =    18191660.0000           ZONE CHANGE =       1.9576E-03
       ZONE CHG TIP/TOE =     3339924.2500      ZONE CHG TIP/TOE =       1.4178E-05
            ZONE MIXING =           0.0000           ZONE MIXING =           0.0000

               TOTAL IN =    21531584.0000              TOTAL IN =       1.9718E-03

             OUT:                                     OUT:
             ----                                     ----
             BOUNDARIES =    26646982.0000            BOUNDARIES =       1.7329E-03
          CONSTANT HEAD =           0.0000         CONSTANT HEAD =           0.0000
            ZONE CHANGE =     1794739.3750           ZONE CHANGE =       2.3018E-04
       ZONE CHG TIP/TOE =     1373014.8750      ZONE CHG TIP/TOE =           0.0000
            ZONE MIXING =           0.0000           ZONE MIXING =           0.0000

              TOTAL OUT =    29814736.0000             TOTAL OUT =       1.9630E-03

               IN - OUT =    -8283152.0000              IN - OUT =       8.7682E-06

    PERCENT DISCREPANCY =         -32.26     PERCENT DISCREPANCY =           0.45


 HEAD WILL BE SAVED ON UNIT   37 AT END OF TIME STEP   26, STRESS PERIOD    1

 DRAWDOWN WILL BE SAVED ON UNIT   38 AT END OF TIME STEP   26, STRESS PERIOD    1
1
  VOLUMETRIC BUDGET FOR ENTIRE MODEL AT END OF TIME STEP   26, STRESS PERIOD   1
  ------------------------------------------------------------------------------

     CUMULATIVE VOLUMES      L**3       RATES FOR THIS TIME STEP      L**3/T
     ------------------                 ------------------------

           IN:                                      IN:
           ---                                      ---
             STORAGE =           0.0000               STORAGE =           0.0000
       CONSTANT HEAD =           0.0000         CONSTANT HEAD =           0.0000
               WELLS =           0.0000                 WELLS =           0.0000
       RIVER LEAKAGE =    57218660.0000         RIVER LEAKAGE =       3.5021E-02
                  ET =           0.0000                    ET =           0.0000
     HEAD DEP BOUNDS =           0.0000       HEAD DEP BOUNDS =           0.0000
            RECHARGE =   218748496.0000              RECHARGE =           0.1334
          SWIADDTOCH =           0.0000            SWIADDTOCH =           0.0000

            TOTAL IN =   275967168.0000              TOTAL IN =           0.1684

          OUT:                                     OUT:
          ----                                     ----
             STORAGE =           0.0000               STORAGE =           0.0000
       CONSTANT HEAD =           0.0000         CONSTANT HEAD =           0.0000
               WELLS =           0.0000                 WELLS =           0.0000
       RIVER LEAKAGE =    11390059.0000         RIVER LEAKAGE =       6.7337E-03
                  ET =    87034024.0000                    ET =       5.1901E-02
     HEAD DEP BOUNDS =   177553104.0000       HEAD DEP BOUNDS =           0.1098
            RECHARGE =           0.0000              RECHARGE =           0.0000
          SWIADDTOCH =           0.0000            SWIADDTOCH =           0.0000

           TOTAL OUT =   275977184.0000             TOTAL OUT =           0.1684

            IN - OUT =      -10016.0000              IN - OUT =      -5.8711E-06

 PERCENT DISCREPANCY =          -0.00     PERCENT DISCREPANCY =          -0.00






         TIME SUMMARY AT END OF TIME STEP   26 IN STRESS PERIOD    1
                    SECONDS     MINUTES      HOURS       DAYS        YEARS
                    -----------------------------------------------------------
   TIME STEP LENGTH 6.30720E+07 1.05120E+06  17520.      730.00      1.9986    
 STRESS PERIOD TIME 1.63987E+09 2.73312E+07 4.55520E+05  18980.      51.964    
         TOTAL TIME 1.63987E+09 2.73312E+07 4.55520E+05  18980.      51.964    
1
 
 SOLVING FOR HEAD 
     2 CALLS TO PCG ROUTINE FOR TIME STEP  27 IN STRESS PERIOD    1
    13 TOTAL ITERATIONS

 MAXIMUM HEAD CHANGE FOR EACH ITERATION (1 INDICATES THE FIRST INNER ITERATION):

    HEAD CHANGE    HEAD CHANGE    HEAD CHANGE    HEAD CHANGE    HEAD CHANGE 
   LAYER,ROW,COL  LAYER,ROW,COL  LAYER,ROW,COL  LAYER,ROW,COL  LAYER,ROW,COL
 ---------------------------------------------------------------------------
  1  0.7837E-01  0 -0.1995E-01  0  0.4537E-01  0 -0.4937E-01  0  0.5410E-01
   (  1, 11,  2)  (  2, 19, 52)  (  2, 58, 31)  (  2, 58, 31)  (  2, 59, 34)
  0 -0.4385E-01  0  0.8893E-02  0 -0.3080E-02  0 -0.3055E-02  0 -0.2572E-02
   (  2, 59, 34)  (  2, 58, 31)  (  2, 58, 31)  (  2, 58, 31)  (  2,  3, 32)
  0  0.2293E-02  0  0.5553E-03  1 -0.5457E-03
   (  2, 58, 31)  (  2, 19, 52)  (  2, 19, 52)

 MAXIMUM RESIDUAL FOR EACH ITERATION (1 INDICATES THE FIRST INNER ITERATION):

    RESIDUAL       RESIDUAL       RESIDUAL       RESIDUAL       RESIDUAL    
   LAYER,ROW,COL  LAYER,ROW,COL  LAYER,ROW,COL  LAYER,ROW,COL  LAYER,ROW,COL
 ---------------------------------------------------------------------------
  1 -0.1669E-03  0 -0.1551E-03  0 -0.4694E-04  0 -0.3850E-04  0 -0.3576E-04
   (  1, 11,  2)  (  1, 11,  2)  (  2, 10,  2)  (  2, 10,  2)  (  2, 10,  2)
  0 -0.1699E-04  0 -0.9646E-05  0  0.7892E-05  0  0.6282E-05  0  0.4730E-05
   (  2, 10,  2)  (  1, 10,  3)  (  2, 10,  3)  (  2, 10,  3)  (  2, 10,  3)
  0  0.3532E-05  0  0.3230E-05  1  0.3178E-05
   (  2, 10,  3)  (  2, 10,  3)  (  2, 10,  3)



 OUTPUT CONTROL FOR STRESS PERIOD    1   TIME STEP   27
    SAVE HEAD FOR ALL LAYERS
    SAVE DRAWDOWN FOR ALL LAYERS
    SAVE BUDGET
    PRINT BUDGET
 UBDSV2 SAVING "   CONSTANT HEAD" ON UNIT   9 AT TIME STEP 27, STRESS PERIOD   1
 UBDSV1 SAVING "FLOW RIGHT FACE " ON UNIT   9 AT TIME STEP 27, STRESS PERIOD   1
 UBDSV1 SAVING "FLOW FRONT FACE " ON UNIT   9 AT TIME STEP 27, STRESS PERIOD   1
 UBDSV1 SAVING "FLOW LOWER FACE " ON UNIT   9 AT TIME STEP 27, STRESS PERIOD   1
 UBDSV4 SAVING "           WELLS" ON UNIT   9 AT TIME STEP 27, STRESS PERIOD   1
 UBDSV4 SAVING "   RIVER LEAKAGE" ON UNIT   9 AT TIME STEP 27, STRESS PERIOD   1
 UBDSV3 SAVING "              ET" ON UNIT   9 AT TIME STEP 27, STRESS PERIOD   1
 UBDSV4 SAVING " HEAD DEP BOUNDS" ON UNIT   9 AT TIME STEP 27, STRESS PERIOD   1
 UBDSV3 SAVING "        RECHARGE" ON UNIT   9 AT TIME STEP 27, STRESS PERIOD   1
 SOLVING FOR ZETA FOR LAYER     1 ZONE     2
     2 CALLS TO PCG ROUTINE FOR TIME STEP  27 IN STRESS PERIOD    1
     5 TOTAL ITERATIONS

 MAXIMUM HEAD CHANGE FOR EACH ITERATION (1 INDICATES THE FIRST INNER ITERATION):

    HEAD CHANGE    HEAD CHANGE    HEAD CHANGE    HEAD CHANGE    HEAD CHANGE 
   LAYER,ROW,COL  LAYER,ROW,COL  LAYER,ROW,COL  LAYER,ROW,COL  LAYER,ROW,COL
 ---------------------------------------------------------------------------
  1  -3.019      0 -0.1108      0 -0.3309E-02  0 -0.5894E-04  1 -0.2274E-05
   (  1, 11,  2)  (  1, 21,  4)  (  1, 22,  3)  (  1, 20,  4)  (  1, 32,  3)

 MAXIMUM RESIDUAL FOR EACH ITERATION (1 INDICATES THE FIRST INNER ITERATION):

    RESIDUAL       RESIDUAL       RESIDUAL       RESIDUAL       RESIDUAL    
   LAYER,ROW,COL  LAYER,ROW,COL  LAYER,ROW,COL  LAYER,ROW,COL  LAYER,ROW,COL
 ---------------------------------------------------------------------------
  1  0.1108E-04  0  0.3158E-06  0  0.5810E-08  0  0.2733E-09  1  0.1566E-10
   (  1, 21,  4)  (  1, 22,  3)  (  1, 20,  4)  (  1, 32,  3)  (  1, 31,  4)


 SOLVING FOR ZETA FOR LAYER     2 ZONE     2
     2 CALLS TO PCG ROUTINE FOR TIME STEP  27 IN STRESS PERIOD    1
     5 TOTAL ITERATIONS

 MAXIMUM HEAD CHANGE FOR EACH ITERATION (1 INDICATES THE FIRST INNER ITERATION):

    HEAD CHANGE    HEAD CHANGE    HEAD CHANGE    HEAD CHANGE    HEAD CHANGE 
   LAYER,ROW,COL  LAYER,ROW,COL  LAYER,ROW,COL  LAYER,ROW,COL  LAYER,ROW,COL
 ---------------------------------------------------------------------------
  1  -1.161      0 -0.4826E-01  0 -0.1276E-02  0  0.3906E-04  1 -0.7917E-06
   (  1, 15,  4)  (  1, 26,  6)  (  1, 27,  5)  (  1, 33,  5)  (  1, 25,  6)

 MAXIMUM RESIDUAL FOR EACH ITERATION (1 INDICATES THE FIRST INNER ITERATION):

    RESIDUAL       RESIDUAL       RESIDUAL       RESIDUAL       RESIDUAL    
   LAYER,ROW,COL  LAYER,ROW,COL  LAYER,ROW,COL  LAYER,ROW,COL  LAYER,ROW,COL
 ---------------------------------------------------------------------------
  1  0.3762E-05  0  0.1236E-06  0 -0.4402E-08  0  0.6373E-10  1 -0.2099E-11
   (  1, 26,  6)  (  1, 27,  5)  (  1, 33,  5)  (  1, 25,  6)  (  1, 33,  5)


 UBUDSV SAVING "      ZETASRF  1" ON UNIT170 AT TIME STEP 27, STRESS PERIOD    1


                      VOLUMETRIC SWI ZONE BUDGET FOR ENTIRE MODEL
                     AT END OF TIME STEP   27 IN STRESS PERIOD   1
                                      ZONE     1
  -----------------------------------------------------------------------------------

        CUMULATIVE VOLUMES      L**3       RATES FOR THIS TIME STEP      L**3/T
        ------------------                 ------------------------

              IN:                                      IN:
              ---                                      ---
             BOUNDARIES =   273075168.0000            BOUNDARIES =           0.1607
          CONSTANT HEAD =           0.0000         CONSTANT HEAD =           0.0000
            ZONE CHANGE =    82384864.0000           ZONE CHANGE =       2.0033E-04
       ZONE CHG TIP/TOE =     3693834.7500      ZONE CHG TIP/TOE =       1.4935E-04
            ZONE MIXING =           0.0000           ZONE MIXING =           0.0000

               TOTAL IN =   359153856.0000              TOTAL IN =           0.1610

             OUT:                                     OUT:
             ----                                     ----
             BOUNDARIES =   246338640.0000            BOUNDARIES =           0.1591
          CONSTANT HEAD =           0.0000         CONSTANT HEAD =           0.0000
            ZONE CHANGE =    21489028.0000           ZONE CHANGE =       1.7481E-03
       ZONE CHG TIP/TOE =     3348634.2500      ZONE CHG TIP/TOE =       1.3810E-04
            ZONE MIXING =           0.0000           ZONE MIXING =           0.0000

              TOTAL OUT =   271176288.0000             TOTAL OUT =           0.1610

               IN - OUT =    87977568.0000              IN - OUT =       4.3526E-05

    PERCENT DISCREPANCY =          27.91     PERCENT DISCREPANCY =           0.03



                      VOLUMETRIC SWI ZONE BUDGET FOR ENTIRE MODEL
                     AT END OF TIME STEP   27 IN STRESS PERIOD   1
                                      ZONE     2
  -----------------------------------------------------------------------------------

        CUMULATIVE VOLUMES      L**3       RATES FOR THIS TIME STEP      L**3/T
        ------------------                 ------------------------

              IN:                                      IN:
              ---                                      ---
             BOUNDARIES =           0.0000            BOUNDARIES =           0.0000
          CONSTANT HEAD =           0.0000         CONSTANT HEAD =           0.0000
            ZONE CHANGE =    18301910.0000           ZONE CHANGE =       1.7480E-03
       ZONE CHG TIP/TOE =     3348634.2500      ZONE CHG TIP/TOE =       1.3810E-04
            ZONE MIXING =           0.0000           ZONE MIXING =           0.0000

               TOTAL IN =    21650544.0000              TOTAL IN =       1.8861E-03

             OUT:                                     OUT:
             ----                                     ----
             BOUNDARIES =    26746860.0000            BOUNDARIES =       1.5836E-03
          CONSTANT HEAD =           0.0000         CONSTANT HEAD =           0.0000
            ZONE CHANGE =     1805213.6250           ZONE CHANGE =       1.6607E-04
       ZONE CHG TIP/TOE =     1382435.0000      ZONE CHG TIP/TOE =       1.4935E-04
            ZONE MIXING =           0.0000           ZONE MIXING =           0.0000

              TOTAL OUT =    29934508.0000             TOTAL OUT =       1.8990E-03

               IN - OUT =    -8283964.0000              IN - OUT =      -1.2868E-05

    PERCENT DISCREPANCY =         -32.12     PERCENT DISCREPANCY =          -0.68


 HEAD WILL BE SAVED ON UNIT   37 AT END OF TIME STEP   27, STRESS PERIOD    1

 DRAWDOWN WILL BE SAVED ON UNIT   38 AT END OF TIME STEP   27, STRESS PERIOD    1
1
  VOLUMETRIC BUDGET FOR ENTIRE MODEL AT END OF TIME STEP   27, STRESS PERIOD   1
  ------------------------------------------------------------------------------

     CUMULATIVE VOLUMES      L**3       RATES FOR THIS TIME STEP      L**3/T
     ------------------                 ------------------------

           IN:                                      IN:
           ---                                      ---
             STORAGE =           0.0000               STORAGE =           0.0000
       CONSTANT HEAD =           0.0000         CONSTANT HEAD =           0.0000
               WELLS =           0.0000                 WELLS =           0.0000
       RIVER LEAKAGE =    59427444.0000         RIVER LEAKAGE =       3.5020E-02
                  ET =           0.0000                    ET =           0.0000
     HEAD DEP BOUNDS =           0.0000       HEAD DEP BOUNDS =           0.0000
            RECHARGE =   227161904.0000              RECHARGE =           0.1334
          SWIADDTOCH =           0.0000            SWIADDTOCH =           0.0000

            TOTAL IN =   286589344.0000              TOTAL IN =           0.1684

          OUT:                                     OUT:
          ----                                     ----
             STORAGE =           0.0000               STORAGE =           0.0000
       CONSTANT HEAD =           0.0000         CONSTANT HEAD =           0.0000
               WELLS =           0.0000                 WELLS =           0.0000
       RIVER LEAKAGE =    11814714.0000         RIVER LEAKAGE =       6.7329E-03
                  ET =    90305880.0000                    ET =       5.1875E-02
     HEAD DEP BOUNDS =   184478992.0000       HEAD DEP BOUNDS =           0.1098
            RECHARGE =           0.0000              RECHARGE =           0.0000
          SWIADDTOCH =           0.0000            SWIADDTOCH =           0.0000

           TOTAL OUT =   286599584.0000             TOTAL OUT =           0.1684

            IN - OUT =      -10240.0000              IN - OUT =      -3.4720E-06

 PERCENT DISCREPANCY =          -0.00     PERCENT DISCREPANCY =          -0.00






         TIME SUMMARY AT END OF TIME STEP   27 IN STRESS PERIOD    1
                    SECONDS     MINUTES      HOURS       DAYS        YEARS
                    -----------------------------------------------------------
   TIME STEP LENGTH 6.30720E+07 1.05120E+06  17520.      730.00      1.9986    
 STRESS PERIOD TIME 1.70294E+09 2.83824E+07 4.73040E+05  19710.      53.963    
         TOTAL TIME 1.70294E+09 2.83824E+07 4.73040E+05  19710.      53.963    
1
 
 SOLVING FOR HEAD 
     2 CALLS TO PCG ROUTINE FOR TIME STEP  28 IN STRESS PERIOD    1
    18 TOTAL ITERATIONS

 MAXIMUM HEAD CHANGE FOR EACH ITERATION (1 INDICATES THE FIRST INNER ITERATION):

    HEAD CHANGE    HEAD CHANGE    HEAD CHANGE    HEAD CHANGE    HEAD CHANGE 
   LAYER,ROW,COL  LAYER,ROW,COL  LAYER,ROW,COL  LAYER,ROW,COL  LAYER,ROW,COL
 ---------------------------------------------------------------------------
  1  0.1349      0 -0.3453E-01  0  0.1705      0 -0.1954      0  0.5287E-01
   (  1,  8,  2)  (  2, 59, 34)  (  2, 59, 34)  (  2, 59, 34)  (  2, 59, 34)
  0 -0.1600E-01  0 -0.7874E-02  0  0.1793E-01  0  0.3548E-02  0 -0.7367E-02
   (  2, 58, 31)  (  2, 22, 49)  (  2, 58, 31)  (  2,  3, 31)  (  2, 58, 31)
  0  0.6049E-02  0 -0.3108E-02  0  0.6072E-02  0 -0.6978E-02  0  0.3326E-02
   (  2, 58, 31)  (  2, 59, 34)  (  2, 59, 34)  (  2, 59, 34)  (  2, 59, 34)
  0  0.1537E-02  0 -0.6315E-03  1  0.3200E-03
   (  2, 58, 31)  (  2, 58, 31)  (  2, 58, 31)

 MAXIMUM RESIDUAL FOR EACH ITERATION (1 INDICATES THE FIRST INNER ITERATION):

    RESIDUAL       RESIDUAL       RESIDUAL       RESIDUAL       RESIDUAL    
   LAYER,ROW,COL  LAYER,ROW,COL  LAYER,ROW,COL  LAYER,ROW,COL  LAYER,ROW,COL
 ---------------------------------------------------------------------------
  1  0.3722E-03  0  0.3577E-03  0  0.8949E-04  0  0.7675E-04  0  0.6006E-04
   (  2,  8,  2)  (  2,  8,  2)  (  2,  8,  2)  (  2,  8,  2)  (  2,  8,  2)
  0  0.4425E-04  0  0.3723E-04  0  0.2701E-04  0  0.1908E-04  0  0.9025E-05
   (  2,  7,  3)  (  2,  7,  3)  (  2,  7,  3)  (  2,  7,  3)  (  2,  9,  1)
  0  0.6001E-05  0  0.5431E-05  0  0.3084E-05  0  0.2747E-05  0 -0.1675E-05
   (  2,  9,  1)  (  2,  9,  1)  (  2,  9,  1)  (  2,  9,  1)  (  1,  9,  1)
  0 -0.1098E-05  0  0.6681E-06  1  0.1280E-05
   (  1,  9,  1)  (  2,  6,  4)  (  1, 22,  9)



 OUTPUT CONTROL FOR STRESS PERIOD    1   TIME STEP   28
    SAVE HEAD FOR ALL LAYERS
    SAVE DRAWDOWN FOR ALL LAYERS
    SAVE BUDGET
    PRINT BUDGET
 UBDSV2 SAVING "   CONSTANT HEAD" ON UNIT   9 AT TIME STEP 28, STRESS PERIOD   1
 UBDSV1 SAVING "FLOW RIGHT FACE " ON UNIT   9 AT TIME STEP 28, STRESS PERIOD   1
 UBDSV1 SAVING "FLOW FRONT FACE " ON UNIT   9 AT TIME STEP 28, STRESS PERIOD   1
 UBDSV1 SAVING "FLOW LOWER FACE " ON UNIT   9 AT TIME STEP 28, STRESS PERIOD   1
 UBDSV4 SAVING "           WELLS" ON UNIT   9 AT TIME STEP 28, STRESS PERIOD   1
 UBDSV4 SAVING "   RIVER LEAKAGE" ON UNIT   9 AT TIME STEP 28, STRESS PERIOD   1
 UBDSV3 SAVING "              ET" ON UNIT   9 AT TIME STEP 28, STRESS PERIOD   1
 UBDSV4 SAVING " HEAD DEP BOUNDS" ON UNIT   9 AT TIME STEP 28, STRESS PERIOD   1
 UBDSV3 SAVING "        RECHARGE" ON UNIT   9 AT TIME STEP 28, STRESS PERIOD   1
 SOLVING FOR ZETA FOR LAYER     1 ZONE     2
     2 CALLS TO PCG ROUTINE FOR TIME STEP  28 IN STRESS PERIOD    1
     5 TOTAL ITERATIONS

 MAXIMUM HEAD CHANGE FOR EACH ITERATION (1 INDICATES THE FIRST INNER ITERATION):

    HEAD CHANGE    HEAD CHANGE    HEAD CHANGE    HEAD CHANGE    HEAD CHANGE 
   LAYER,ROW,COL  LAYER,ROW,COL  LAYER,ROW,COL  LAYER,ROW,COL  LAYER,ROW,COL
 ---------------------------------------------------------------------------
  1  -5.945      0  0.9181E-01  0  0.6412E-02  0  0.2081E-03  1  0.8270E-05
   (  1,  8,  2)  (  1,  9,  2)  (  1,  8,  3)  (  1, 21,  4)  (  1, 22,  3)

 MAXIMUM RESIDUAL FOR EACH ITERATION (1 INDICATES THE FIRST INNER ITERATION):

    RESIDUAL       RESIDUAL       RESIDUAL       RESIDUAL       RESIDUAL    
   LAYER,ROW,COL  LAYER,ROW,COL  LAYER,ROW,COL  LAYER,ROW,COL  LAYER,ROW,COL
 ---------------------------------------------------------------------------
  1 -0.1071E-04  0 -0.6179E-06  0 -0.2268E-07  0 -0.8167E-09  1 -0.3425E-10
   (  1,  9,  2)  (  1,  8,  3)  (  1, 21,  4)  (  1, 22,  3)  (  1,  9,  2)


 SOLVING FOR ZETA FOR LAYER     2 ZONE     2
     2 CALLS TO PCG ROUTINE FOR TIME STEP  28 IN STRESS PERIOD    1
     4 TOTAL ITERATIONS

 MAXIMUM HEAD CHANGE FOR EACH ITERATION (1 INDICATES THE FIRST INNER ITERATION):

    HEAD CHANGE    HEAD CHANGE    HEAD CHANGE    HEAD CHANGE    HEAD CHANGE 
   LAYER,ROW,COL  LAYER,ROW,COL  LAYER,ROW,COL  LAYER,ROW,COL  LAYER,ROW,COL
 ---------------------------------------------------------------------------
  1  -1.440      0 -0.2948E-01  0 -0.9894E-03  1 -0.3651E-04
   (  1, 24,  5)  (  1, 26,  6)  (  1, 27,  5)  (  1, 34,  4)

 MAXIMUM RESIDUAL FOR EACH ITERATION (1 INDICATES THE FIRST INNER ITERATION):

    RESIDUAL       RESIDUAL       RESIDUAL       RESIDUAL       RESIDUAL    
   LAYER,ROW,COL  LAYER,ROW,COL  LAYER,ROW,COL  LAYER,ROW,COL  LAYER,ROW,COL
 ---------------------------------------------------------------------------
  1  0.2280E-05  0  0.9266E-07  0  0.4391E-08  1  0.2048E-09
   (  1, 26,  6)  (  1, 27,  5)  (  1, 34,  4)  (  1, 33,  5)


 UBUDSV SAVING "      ZETASRF  1" ON UNIT170 AT TIME STEP 28, STRESS PERIOD    1


                      VOLUMETRIC SWI ZONE BUDGET FOR ENTIRE MODEL
                     AT END OF TIME STEP   28 IN STRESS PERIOD   1
                                      ZONE     1
  -----------------------------------------------------------------------------------

        CUMULATIVE VOLUMES      L**3       RATES FOR THIS TIME STEP      L**3/T
        ------------------                 ------------------------

              IN:                                      IN:
              ---                                      ---
             BOUNDARIES =   283210848.0000            BOUNDARIES =           0.1607
          CONSTANT HEAD =           0.0000         CONSTANT HEAD =           0.0000
            ZONE CHANGE =    82410056.0000           ZONE CHANGE =       3.9947E-04
       ZONE CHG TIP/TOE =     3693834.7500      ZONE CHG TIP/TOE =           0.0000
            ZONE MIXING =           0.0000           ZONE MIXING =           0.0000

               TOTAL IN =   369314752.0000              TOTAL IN =           0.1611

             OUT:                                     OUT:
             ----                                     ----
             BOUNDARIES =   256379040.0000            BOUNDARIES =           0.1592
          CONSTANT HEAD =           0.0000         CONSTANT HEAD =           0.0000
            ZONE CHANGE =    21605230.0000           ZONE CHANGE =       1.8424E-03
       ZONE CHG TIP/TOE =     3348634.2500      ZONE CHG TIP/TOE =           0.0000
            ZONE MIXING =           0.0000           ZONE MIXING =           0.0000

              TOTAL OUT =   281332896.0000             TOTAL OUT =           0.1610

               IN - OUT =    87981856.0000              IN - OUT =       6.7979E-05

    PERCENT DISCREPANCY =          27.04     PERCENT DISCREPANCY =           0.04



                      VOLUMETRIC SWI ZONE BUDGET FOR ENTIRE MODEL
                     AT END OF TIME STEP   28 IN STRESS PERIOD   1
                                      ZONE     2
  -----------------------------------------------------------------------------------

        CUMULATIVE VOLUMES      L**3       RATES FOR THIS TIME STEP      L**3/T
        ------------------                 ------------------------

              IN:                                      IN:
              ---                                      ---
             BOUNDARIES =           0.0000            BOUNDARIES =           0.0000
          CONSTANT HEAD =           0.0000         CONSTANT HEAD =           0.0000
            ZONE CHANGE =    18418112.0000           ZONE CHANGE =       1.8424E-03
       ZONE CHG TIP/TOE =     3348634.2500      ZONE CHG TIP/TOE =           0.0000
            ZONE MIXING =           0.0000           ZONE MIXING =           0.0000

               TOTAL IN =    21766746.0000              TOTAL IN =       1.8424E-03

             OUT:                                     OUT:
             ----                                     ----
             BOUNDARIES =    26842424.0000            BOUNDARIES =       1.5152E-03
          CONSTANT HEAD =           0.0000         CONSTANT HEAD =           0.0000
            ZONE CHANGE =     1825813.2500           ZONE CHANGE =       3.2661E-04
       ZONE CHG TIP/TOE =     1382435.0000      ZONE CHG TIP/TOE =           0.0000
            ZONE MIXING =           0.0000           ZONE MIXING =           0.0000

              TOTAL OUT =    30050672.0000             TOTAL OUT =       1.8418E-03

               IN - OUT =    -8283926.0000              IN - OUT =       5.9546E-07

    PERCENT DISCREPANCY =         -31.97     PERCENT DISCREPANCY =           0.03


 HEAD WILL BE SAVED ON UNIT   37 AT END OF TIME STEP   28, STRESS PERIOD    1

 DRAWDOWN WILL BE SAVED ON UNIT   38 AT END OF TIME STEP   28, STRESS PERIOD    1
1
  VOLUMETRIC BUDGET FOR ENTIRE MODEL AT END OF TIME STEP   28, STRESS PERIOD   1
  ------------------------------------------------------------------------------

     CUMULATIVE VOLUMES      L**3       RATES FOR THIS TIME STEP      L**3/T
     ------------------                 ------------------------

           IN:                                      IN:
           ---                                      ---
             STORAGE =           0.0000               STORAGE =           0.0000
       CONSTANT HEAD =           0.0000         CONSTANT HEAD =           0.0000
               WELLS =           0.0000                 WELLS =           0.0000
       RIVER LEAKAGE =    61636308.0000         RIVER LEAKAGE =       3.5021E-02
                  ET =           0.0000                    ET =           0.0000
     HEAD DEP BOUNDS =           0.0000       HEAD DEP BOUNDS =           0.0000
            RECHARGE =   235575312.0000              RECHARGE =           0.1334
          SWIADDTOCH =           0.0000            SWIADDTOCH =           0.0000

            TOTAL IN =   297211616.0000              TOTAL IN =           0.1684

          OUT:                                     OUT:
          ----                                     ----
             STORAGE =           0.0000               STORAGE =           0.0000
       CONSTANT HEAD =           0.0000         CONSTANT HEAD =           0.0000
               WELLS =           0.0000                 WELLS =           0.0000
       RIVER LEAKAGE =    12239083.0000         RIVER LEAKAGE =       6.7283E-03
                  ET =    93573304.0000                    ET =       5.1805E-02
     HEAD DEP BOUNDS =   191409728.0000       HEAD DEP BOUNDS =           0.1099
            RECHARGE =           0.0000              RECHARGE =           0.0000
          SWIADDTOCH =           0.0000            SWIADDTOCH =           0.0000

           TOTAL OUT =   297222112.0000             TOTAL OUT =           0.1684

            IN - OUT =      -10496.0000              IN - OUT =      -4.2766E-06

 PERCENT DISCREPANCY =          -0.00     PERCENT DISCREPANCY =          -0.00






         TIME SUMMARY AT END OF TIME STEP   28 IN STRESS PERIOD    1
                    SECONDS     MINUTES      HOURS       DAYS        YEARS
                    -----------------------------------------------------------
   TIME STEP LENGTH 6.30720E+07 1.05120E+06  17520.      730.00      1.9986    
 STRESS PERIOD TIME 1.76602E+09 2.94336E+07 4.90560E+05  20440.      55.962    
         TOTAL TIME 1.76602E+09 2.94336E+07 4.90560E+05  20440.      55.962    
1
 
 SOLVING FOR HEAD 
     2 CALLS TO PCG ROUTINE FOR TIME STEP  29 IN STRESS PERIOD    1
    16 TOTAL ITERATIONS

 MAXIMUM HEAD CHANGE FOR EACH ITERATION (1 INDICATES THE FIRST INNER ITERATION):

    HEAD CHANGE    HEAD CHANGE    HEAD CHANGE    HEAD CHANGE    HEAD CHANGE 
   LAYER,ROW,COL  LAYER,ROW,COL  LAYER,ROW,COL  LAYER,ROW,COL  LAYER,ROW,COL
 ---------------------------------------------------------------------------
  1  0.1213      0 -0.2806E-01  0  0.3027E-01  0 -0.5421E-01  0  0.4868E-01
   (  1,  8,  2)  (  2, 20, 52)  (  2, 59, 34)  (  2, 59, 34)  (  2, 59, 34)
  0 -0.2631E-01  0  0.1125E-01  0  0.8704E-02  0 -0.3525E-02  0 -0.4691E-02
   (  2, 59, 34)  (  2, 58, 31)  (  2,  3, 32)  (  2,  3, 32)  (  2, 58, 31)
  0  0.3859E-02  0 -0.1953E-02  0  0.5341E-02  0 -0.3555E-02  0  0.5133E-03
   (  2, 58, 31)  (  2, 59, 34)  (  2, 59, 34)  (  2, 59, 34)  (  2, 58, 31)
  1  0.1878E-03
   (  2, 19, 52)

 MAXIMUM RESIDUAL FOR EACH ITERATION (1 INDICATES THE FIRST INNER ITERATION):

    RESIDUAL       RESIDUAL       RESIDUAL       RESIDUAL       RESIDUAL    
   LAYER,ROW,COL  LAYER,ROW,COL  LAYER,ROW,COL  LAYER,ROW,COL  LAYER,ROW,COL
 ---------------------------------------------------------------------------
  1  0.2132E-03  0  0.1008E-03  0 -0.5552E-04  0 -0.5347E-04  0 -0.4424E-04
   (  2,  8,  2)  (  2,  8,  2)  (  2,  7,  2)  (  2,  7,  2)  (  2,  7,  2)
  0 -0.4033E-04  0  0.1830E-04  0  0.1271E-04  0  0.1058E-04  0  0.6417E-05
   (  2,  7,  2)  (  2,  9,  1)  (  2,  7,  3)  (  2,  7,  3)  (  2,  7,  3)
  0  0.3861E-05  0 -0.2279E-05  0 -0.2032E-05  0 -0.1170E-05  0 -0.9299E-06
   (  2,  7,  3)  (  1,  9,  1)  (  1,  9,  1)  (  1,  9,  1)  (  1,  9,  1)
  1 -0.9175E-06
   (  1,  9,  1)



 OUTPUT CONTROL FOR STRESS PERIOD    1   TIME STEP   29
    SAVE HEAD FOR ALL LAYERS
    SAVE DRAWDOWN FOR ALL LAYERS
    SAVE BUDGET
    PRINT BUDGET
 UBDSV2 SAVING "   CONSTANT HEAD" ON UNIT   9 AT TIME STEP 29, STRESS PERIOD   1
 UBDSV1 SAVING "FLOW RIGHT FACE " ON UNIT   9 AT TIME STEP 29, STRESS PERIOD   1
 UBDSV1 SAVING "FLOW FRONT FACE " ON UNIT   9 AT TIME STEP 29, STRESS PERIOD   1
 UBDSV1 SAVING "FLOW LOWER FACE " ON UNIT   9 AT TIME STEP 29, STRESS PERIOD   1
 UBDSV4 SAVING "           WELLS" ON UNIT   9 AT TIME STEP 29, STRESS PERIOD   1
 UBDSV4 SAVING "   RIVER LEAKAGE" ON UNIT   9 AT TIME STEP 29, STRESS PERIOD   1
 UBDSV3 SAVING "              ET" ON UNIT   9 AT TIME STEP 29, STRESS PERIOD   1
 UBDSV4 SAVING " HEAD DEP BOUNDS" ON UNIT   9 AT TIME STEP 29, STRESS PERIOD   1
 UBDSV3 SAVING "        RECHARGE" ON UNIT   9 AT TIME STEP 29, STRESS PERIOD   1
 SOLVING FOR ZETA FOR LAYER     1 ZONE     2
     2 CALLS TO PCG ROUTINE FOR TIME STEP  29 IN STRESS PERIOD    1
     5 TOTAL ITERATIONS

 MAXIMUM HEAD CHANGE FOR EACH ITERATION (1 INDICATES THE FIRST INNER ITERATION):

    HEAD CHANGE    HEAD CHANGE    HEAD CHANGE    HEAD CHANGE    HEAD CHANGE 
   LAYER,ROW,COL  LAYER,ROW,COL  LAYER,ROW,COL  LAYER,ROW,COL  LAYER,ROW,COL
 ---------------------------------------------------------------------------
  1  -4.554      0 -0.4402E-01  0  0.3394E-02  0  0.9432E-04  1  0.3862E-05
   (  1,  8,  2)  (  1, 21,  4)  (  1,  8,  3)  (  1,  9,  2)  (  1,  8,  3)

 MAXIMUM RESIDUAL FOR EACH ITERATION (1 INDICATES THE FIRST INNER ITERATION):

    RESIDUAL       RESIDUAL       RESIDUAL       RESIDUAL       RESIDUAL    
   LAYER,ROW,COL  LAYER,ROW,COL  LAYER,ROW,COL  LAYER,ROW,COL  LAYER,ROW,COL
 ---------------------------------------------------------------------------
  1 -0.4412E-05  0 -0.3272E-06  0 -0.1022E-07  0 -0.3909E-09  1 -0.2429E-10
   (  1,  9,  2)  (  1,  8,  3)  (  1,  9,  2)  (  1,  8,  3)  (  1,  9,  2)


 SOLVING FOR ZETA FOR LAYER     2 ZONE     2
     2 CALLS TO PCG ROUTINE FOR TIME STEP  29 IN STRESS PERIOD    1
     4 TOTAL ITERATIONS

 MAXIMUM HEAD CHANGE FOR EACH ITERATION (1 INDICATES THE FIRST INNER ITERATION):

    HEAD CHANGE    HEAD CHANGE    HEAD CHANGE    HEAD CHANGE    HEAD CHANGE 
   LAYER,ROW,COL  LAYER,ROW,COL  LAYER,ROW,COL  LAYER,ROW,COL  LAYER,ROW,COL
 ---------------------------------------------------------------------------
  1 -0.8404      0 -0.2020E-01  0 -0.9051E-03  1 -0.3683E-04
   (  1, 24,  5)  (  1, 25,  6)  (  1, 33,  5)  (  1, 34,  4)

 MAXIMUM RESIDUAL FOR EACH ITERATION (1 INDICATES THE FIRST INNER ITERATION):

    RESIDUAL       RESIDUAL       RESIDUAL       RESIDUAL       RESIDUAL    
   LAYER,ROW,COL  LAYER,ROW,COL  LAYER,ROW,COL  LAYER,ROW,COL  LAYER,ROW,COL
 ---------------------------------------------------------------------------
  1  0.1588E-05  0  0.9617E-07  0  0.4272E-08  1  0.3148E-09
   (  1, 25,  6)  (  1, 33,  5)  (  1, 34,  4)  (  1, 33,  5)


 UBUDSV SAVING "      ZETASRF  1" ON UNIT170 AT TIME STEP 29, STRESS PERIOD    1


                      VOLUMETRIC SWI ZONE BUDGET FOR ENTIRE MODEL
                     AT END OF TIME STEP   29 IN STRESS PERIOD   1
                                      ZONE     1
  -----------------------------------------------------------------------------------

        CUMULATIVE VOLUMES      L**3       RATES FOR THIS TIME STEP      L**3/T
        ------------------                 ------------------------

              IN:                                      IN:
              ---                                      ---
             BOUNDARIES =   293346560.0000            BOUNDARIES =           0.1607
          CONSTANT HEAD =           0.0000         CONSTANT HEAD =           0.0000
            ZONE CHANGE =    82425504.0000           ZONE CHANGE =       2.4491E-04
       ZONE CHG TIP/TOE =     3703008.0000      ZONE CHG TIP/TOE =       1.4544E-04
            ZONE MIXING =           0.0000           ZONE MIXING =           0.0000

               TOTAL IN =   379475072.0000              TOTAL IN =           0.1611

             OUT:                                     OUT:
             ----                                     ----
             BOUNDARIES =   266428512.0000            BOUNDARIES =           0.1593
          CONSTANT HEAD =           0.0000         CONSTANT HEAD =           0.0000
            ZONE CHANGE =    21705810.0000           ZONE CHANGE =       1.5947E-03
       ZONE CHG TIP/TOE =     3357221.0000      ZONE CHG TIP/TOE =       1.3614E-04
            ZONE MIXING =           0.0000           ZONE MIXING =           0.0000

              TOTAL OUT =   291491552.0000             TOTAL OUT =           0.1611

               IN - OUT =    87983520.0000              IN - OUT =       2.7105E-05

    PERCENT DISCREPANCY =          26.23     PERCENT DISCREPANCY =           0.02



                      VOLUMETRIC SWI ZONE BUDGET FOR ENTIRE MODEL
                     AT END OF TIME STEP   29 IN STRESS PERIOD   1
                                      ZONE     2
  -----------------------------------------------------------------------------------

        CUMULATIVE VOLUMES      L**3       RATES FOR THIS TIME STEP      L**3/T
        ------------------                 ------------------------

              IN:                                      IN:
              ---                                      ---
             BOUNDARIES =           0.0000            BOUNDARIES =           0.0000
          CONSTANT HEAD =           0.0000         CONSTANT HEAD =           0.0000
            ZONE CHANGE =    18518656.0000           ZONE CHANGE =       1.5941E-03
       ZONE CHG TIP/TOE =     3357221.0000      ZONE CHG TIP/TOE =       1.3614E-04
            ZONE MIXING =           0.0000           ZONE MIXING =           0.0000

               TOTAL IN =    21875876.0000              TOTAL IN =       1.7303E-03

             OUT:                                     OUT:
             ----                                     ----
             BOUNDARIES =    26928770.0000            BOUNDARIES =       1.3690E-03
          CONSTANT HEAD =           0.0000         CONSTANT HEAD =           0.0000
            ZONE CHANGE =     1839903.0000           ZONE CHANGE =       2.2339E-04
       ZONE CHG TIP/TOE =     1391608.3750      ZONE CHG TIP/TOE =       1.4544E-04
            ZONE MIXING =           0.0000           ZONE MIXING =           0.0000

              TOTAL OUT =    30160282.0000             TOTAL OUT =       1.7378E-03

               IN - OUT =    -8284406.0000              IN - OUT =      -7.5687E-06

    PERCENT DISCREPANCY =         -31.84     PERCENT DISCREPANCY =          -0.44


 HEAD WILL BE SAVED ON UNIT   37 AT END OF TIME STEP   29, STRESS PERIOD    1

 DRAWDOWN WILL BE SAVED ON UNIT   38 AT END OF TIME STEP   29, STRESS PERIOD    1
1
  VOLUMETRIC BUDGET FOR ENTIRE MODEL AT END OF TIME STEP   29, STRESS PERIOD   1
  ------------------------------------------------------------------------------

     CUMULATIVE VOLUMES      L**3       RATES FOR THIS TIME STEP      L**3/T
     ------------------                 ------------------------

           IN:                                      IN:
           ---                                      ---
             STORAGE =           0.0000               STORAGE =           0.0000
       CONSTANT HEAD =           0.0000         CONSTANT HEAD =           0.0000
               WELLS =           0.0000                 WELLS =           0.0000
       RIVER LEAKAGE =    63845140.0000         RIVER LEAKAGE =       3.5021E-02
                  ET =           0.0000                    ET =           0.0000
     HEAD DEP BOUNDS =           0.0000       HEAD DEP BOUNDS =           0.0000
            RECHARGE =   243988720.0000              RECHARGE =           0.1334
          SWIADDTOCH =           0.0000            SWIADDTOCH =           0.0000

            TOTAL IN =   307833856.0000              TOTAL IN =           0.1684

          OUT:                                     OUT:
          ----                                     ----
             STORAGE =           0.0000               STORAGE =           0.0000
       CONSTANT HEAD =           0.0000         CONSTANT HEAD =           0.0000
               WELLS =           0.0000                 WELLS =           0.0000
       RIVER LEAKAGE =    12663457.0000         RIVER LEAKAGE =       6.7284E-03
                  ET =    96839744.0000                    ET =       5.1789E-02
     HEAD DEP BOUNDS =   198341248.0000       HEAD DEP BOUNDS =           0.1099
            RECHARGE =           0.0000              RECHARGE =           0.0000
          SWIADDTOCH =           0.0000            SWIADDTOCH =           0.0000

           TOTAL OUT =   307844448.0000             TOTAL OUT =           0.1684

            IN - OUT =      -10592.0000              IN - OUT =      -1.4156E-06

 PERCENT DISCREPANCY =          -0.00     PERCENT DISCREPANCY =          -0.00






         TIME SUMMARY AT END OF TIME STEP   29 IN STRESS PERIOD    1
                    SECONDS     MINUTES      HOURS       DAYS        YEARS
                    -----------------------------------------------------------
   TIME STEP LENGTH 6.30720E+07 1.05120E+06  17520.      730.00      1.9986    
 STRESS PERIOD TIME 1.82909E+09 3.04848E+07 5.08080E+05  21170.      57.960    
         TOTAL TIME 1.82909E+09 3.04848E+07 5.08080E+05  21170.      57.960    
1
 
 SOLVING FOR HEAD 
     2 CALLS TO PCG ROUTINE FOR TIME STEP  30 IN STRESS PERIOD    1
    16 TOTAL ITERATIONS

 MAXIMUM HEAD CHANGE FOR EACH ITERATION (1 INDICATES THE FIRST INNER ITERATION):

    HEAD CHANGE    HEAD CHANGE    HEAD CHANGE    HEAD CHANGE    HEAD CHANGE 
   LAYER,ROW,COL  LAYER,ROW,COL  LAYER,ROW,COL  LAYER,ROW,COL  LAYER,ROW,COL
 ---------------------------------------------------------------------------
  1  0.1211      0 -0.9095E-01  0  0.1254      0 -0.7634E-01  0  0.4084E-01
   (  1, 29,  3)  (  2, 59, 34)  (  2, 59, 34)  (  2, 59, 34)  (  2, 59, 34)
  0 -0.8542E-02  0 -0.9315E-02  0  0.5666E-02  0  0.4508E-02  0 -0.3789E-02
   (  2, 22, 49)  (  2, 20, 52)  (  2, 20, 52)  (  2, 58, 31)  (  2, 58, 31)
  0 -0.2902E-02  0  0.3911E-02  0 -0.6051E-02  0  0.5659E-02  0 -0.8924E-03
   (  2, 59, 34)  (  2, 59, 34)  (  2, 59, 34)  (  2, 59, 34)  (  2, 59, 34)
  1 -0.7003E-03
   (  2, 58, 31)

 MAXIMUM RESIDUAL FOR EACH ITERATION (1 INDICATES THE FIRST INNER ITERATION):

    RESIDUAL       RESIDUAL       RESIDUAL       RESIDUAL       RESIDUAL    
   LAYER,ROW,COL  LAYER,ROW,COL  LAYER,ROW,COL  LAYER,ROW,COL  LAYER,ROW,COL
 ---------------------------------------------------------------------------
  1  0.3046E-03  0  0.1772E-03  0  0.6792E-04  0  0.6528E-04  0  0.4054E-04
   (  2, 29,  3)  (  2, 29,  3)  (  2, 29,  3)  (  2, 29,  3)  (  2, 28,  4)
  0  0.3388E-04  0  0.2293E-04  0  0.1122E-04  0  0.7189E-05  0  0.3829E-05
   (  2, 28,  4)  (  2, 28,  4)  (  2, 28,  4)  (  2, 28,  4)  (  1, 30,  3)
  0  0.2554E-05  0  0.2229E-05  0 -0.1770E-05  0 -0.1408E-05  0 -0.9588E-06
   (  1, 30,  3)  (  1, 30,  3)  (  2, 27,  4)  (  2, 27,  4)  (  2, 27,  4)
  1 -0.8614E-06
   (  2, 27,  4)



 OUTPUT CONTROL FOR STRESS PERIOD    1   TIME STEP   30
    SAVE HEAD FOR ALL LAYERS
    SAVE DRAWDOWN FOR ALL LAYERS
    SAVE BUDGET
    PRINT BUDGET
 UBDSV2 SAVING "   CONSTANT HEAD" ON UNIT   9 AT TIME STEP 30, STRESS PERIOD   1
 UBDSV1 SAVING "FLOW RIGHT FACE " ON UNIT   9 AT TIME STEP 30, STRESS PERIOD   1
 UBDSV1 SAVING "FLOW FRONT FACE " ON UNIT   9 AT TIME STEP 30, STRESS PERIOD   1
 UBDSV1 SAVING "FLOW LOWER FACE " ON UNIT   9 AT TIME STEP 30, STRESS PERIOD   1
 UBDSV4 SAVING "           WELLS" ON UNIT   9 AT TIME STEP 30, STRESS PERIOD   1
 UBDSV4 SAVING "   RIVER LEAKAGE" ON UNIT   9 AT TIME STEP 30, STRESS PERIOD   1
 UBDSV3 SAVING "              ET" ON UNIT   9 AT TIME STEP 30, STRESS PERIOD   1
 UBDSV4 SAVING " HEAD DEP BOUNDS" ON UNIT   9 AT TIME STEP 30, STRESS PERIOD   1
 UBDSV3 SAVING "        RECHARGE" ON UNIT   9 AT TIME STEP 30, STRESS PERIOD   1
 SOLVING FOR ZETA FOR LAYER     1 ZONE     2
     2 CALLS TO PCG ROUTINE FOR TIME STEP  30 IN STRESS PERIOD    1
     5 TOTAL ITERATIONS

 MAXIMUM HEAD CHANGE FOR EACH ITERATION (1 INDICATES THE FIRST INNER ITERATION):

    HEAD CHANGE    HEAD CHANGE    HEAD CHANGE    HEAD CHANGE    HEAD CHANGE 
   LAYER,ROW,COL  LAYER,ROW,COL  LAYER,ROW,COL  LAYER,ROW,COL  LAYER,ROW,COL
 ---------------------------------------------------------------------------
  1  -5.676      0 -0.2874E-01  0 -0.1319E-02  0  0.2750E-04  1  0.1725E-05
   (  1, 29,  3)  (  1, 21,  4)  (  1, 22,  3)  (  1,  9,  2)  (  1,  8,  3)

 MAXIMUM RESIDUAL FOR EACH ITERATION (1 INDICATES THE FIRST INNER ITERATION):

    RESIDUAL       RESIDUAL       RESIDUAL       RESIDUAL       RESIDUAL    
   LAYER,ROW,COL  LAYER,ROW,COL  LAYER,ROW,COL  LAYER,ROW,COL  LAYER,ROW,COL
 ---------------------------------------------------------------------------
  1  0.2662E-05  0  0.1321E-06  0 -0.2906E-08  0 -0.1730E-09  1 -0.1258E-10
   (  1, 21,  4)  (  1, 32,  3)  (  1,  9,  2)  (  1,  8,  3)  (  1,  9,  2)


 SOLVING FOR ZETA FOR LAYER     2 ZONE     2
     2 CALLS TO PCG ROUTINE FOR TIME STEP  30 IN STRESS PERIOD    1
     4 TOTAL ITERATIONS

 MAXIMUM HEAD CHANGE FOR EACH ITERATION (1 INDICATES THE FIRST INNER ITERATION):

    HEAD CHANGE    HEAD CHANGE    HEAD CHANGE    HEAD CHANGE    HEAD CHANGE 
   LAYER,ROW,COL  LAYER,ROW,COL  LAYER,ROW,COL  LAYER,ROW,COL  LAYER,ROW,COL
 ---------------------------------------------------------------------------
  1  -1.511      0 -0.7026E-01  0 -0.7822E-03  1 -0.5553E-04
   (  1, 26,  5)  (  1, 25,  6)  (  1, 33,  5)  (  1, 34,  4)

 MAXIMUM RESIDUAL FOR EACH ITERATION (1 INDICATES THE FIRST INNER ITERATION):

    RESIDUAL       RESIDUAL       RESIDUAL       RESIDUAL       RESIDUAL    
   LAYER,ROW,COL  LAYER,ROW,COL  LAYER,ROW,COL  LAYER,ROW,COL  LAYER,ROW,COL
 ---------------------------------------------------------------------------
  1  0.5460E-05  0  0.7985E-07  0  0.6560E-08  1  0.4203E-09
   (  1, 25,  6)  (  1, 33,  5)  (  1, 34,  4)  (  1, 33,  5)


 UBUDSV SAVING "      ZETASRF  1" ON UNIT170 AT TIME STEP 30, STRESS PERIOD    1


                      VOLUMETRIC SWI ZONE BUDGET FOR ENTIRE MODEL
                     AT END OF TIME STEP   30 IN STRESS PERIOD   1
                                      ZONE     1
  -----------------------------------------------------------------------------------

        CUMULATIVE VOLUMES      L**3       RATES FOR THIS TIME STEP      L**3/T
        ------------------                 ------------------------

              IN:                                      IN:
              ---                                      ---
             BOUNDARIES =   303482912.0000            BOUNDARIES =           0.1607
          CONSTANT HEAD =           0.0000         CONSTANT HEAD =           0.0000
            ZONE CHANGE =    82453064.0000           ZONE CHANGE =       4.3691E-04
       ZONE CHG TIP/TOE =     3703016.0000      ZONE CHG TIP/TOE =       1.2822E-07
            ZONE MIXING =           0.0000           ZONE MIXING =           0.0000

               TOTAL IN =   389638976.0000              TOTAL IN =           0.1611

             OUT:                                     OUT:
             ----                                     ----
             BOUNDARIES =   276488864.0000            BOUNDARIES =           0.1595
          CONSTANT HEAD =           0.0000         CONSTANT HEAD =           0.0000
            ZONE CHANGE =    21806110.0000           ZONE CHANGE =       1.5903E-03
       ZONE CHG TIP/TOE =     3357221.0000      ZONE CHG TIP/TOE =           0.0000
            ZONE MIXING =           0.0000           ZONE MIXING =           0.0000

              TOTAL OUT =   301652192.0000             TOTAL OUT =           0.1611

               IN - OUT =    87986784.0000              IN - OUT =       5.2154E-05

    PERCENT DISCREPANCY =          25.46     PERCENT DISCREPANCY =           0.03



                      VOLUMETRIC SWI ZONE BUDGET FOR ENTIRE MODEL
                     AT END OF TIME STEP   30 IN STRESS PERIOD   1
                                      ZONE     2
  -----------------------------------------------------------------------------------

        CUMULATIVE VOLUMES      L**3       RATES FOR THIS TIME STEP      L**3/T
        ------------------                 ------------------------

              IN:                                      IN:
              ---                                      ---
             BOUNDARIES =           0.0000            BOUNDARIES =           0.0000
          CONSTANT HEAD =           0.0000         CONSTANT HEAD =           0.0000
            ZONE CHANGE =    18618946.0000           ZONE CHANGE =       1.5901E-03
       ZONE CHG TIP/TOE =     3357221.0000      ZONE CHG TIP/TOE =           0.0000
            ZONE MIXING =           0.0000           ZONE MIXING =           0.0000

               TOTAL IN =    21976168.0000              TOTAL IN =       1.5901E-03

             OUT:                                     OUT:
             ----                                     ----
             BOUNDARIES =    27005014.0000            BOUNDARIES =       1.2089E-03
          CONSTANT HEAD =           0.0000         CONSTANT HEAD =           0.0000
            ZONE CHANGE =     1863920.6250           ZONE CHANGE =       3.8080E-04
       ZONE CHG TIP/TOE =     1391608.3750      ZONE CHG TIP/TOE =           0.0000
            ZONE MIXING =           0.0000           ZONE MIXING =           0.0000

              TOTAL OUT =    30260544.0000             TOTAL OUT =       1.5896E-03

               IN - OUT =    -8284376.0000              IN - OUT =       4.2818E-07

    PERCENT DISCREPANCY =         -31.72     PERCENT DISCREPANCY =           0.03


 HEAD WILL BE SAVED ON UNIT   37 AT END OF TIME STEP   30, STRESS PERIOD    1

 DRAWDOWN WILL BE SAVED ON UNIT   38 AT END OF TIME STEP   30, STRESS PERIOD    1
1
  VOLUMETRIC BUDGET FOR ENTIRE MODEL AT END OF TIME STEP   30, STRESS PERIOD   1
  ------------------------------------------------------------------------------

     CUMULATIVE VOLUMES      L**3       RATES FOR THIS TIME STEP      L**3/T
     ------------------                 ------------------------

           IN:                                      IN:
           ---                                      ---
             STORAGE =           0.0000               STORAGE =           0.0000
       CONSTANT HEAD =           0.0000         CONSTANT HEAD =           0.0000
               WELLS =           0.0000                 WELLS =           0.0000
       RIVER LEAKAGE =    66054388.0000         RIVER LEAKAGE =       3.5027E-02
                  ET =           0.0000                    ET =           0.0000
     HEAD DEP BOUNDS =           0.0000       HEAD DEP BOUNDS =           0.0000
            RECHARGE =   252402128.0000              RECHARGE =           0.1334
          SWIADDTOCH =           0.0000            SWIADDTOCH =           0.0000

            TOTAL IN =   318456512.0000              TOTAL IN =           0.1684

          OUT:                                     OUT:
          ----                                     ----
             STORAGE =           0.0000               STORAGE =           0.0000
       CONSTANT HEAD =           0.0000         CONSTANT HEAD =           0.0000
               WELLS =           0.0000                 WELLS =           0.0000
       RIVER LEAKAGE =    13087030.0000         RIVER LEAKAGE =       6.7157E-03
                  ET =   100103608.0000                    ET =       5.1748E-02
     HEAD DEP BOUNDS =   205276688.0000       HEAD DEP BOUNDS =           0.1100
            RECHARGE =           0.0000              RECHARGE =           0.0000
          SWIADDTOCH =           0.0000            SWIADDTOCH =           0.0000

           TOTAL OUT =   318467328.0000             TOTAL OUT =           0.1684

            IN - OUT =      -10816.0000              IN - OUT =      -3.4869E-06

 PERCENT DISCREPANCY =          -0.00     PERCENT DISCREPANCY =          -0.00






         TIME SUMMARY AT END OF TIME STEP   30 IN STRESS PERIOD    1
                    SECONDS     MINUTES      HOURS       DAYS        YEARS
                    -----------------------------------------------------------
   TIME STEP LENGTH 6.30720E+07 1.05120E+06  17520.      730.00      1.9986    
 STRESS PERIOD TIME 1.89216E+09 3.15360E+07 5.25600E+05  21900.      59.959    
         TOTAL TIME 1.89216E+09 3.15360E+07 5.25600E+05  21900.      59.959    
1
 
 SOLVING FOR HEAD 
     2 CALLS TO PCG ROUTINE FOR TIME STEP  31 IN STRESS PERIOD    1
    15 TOTAL ITERATIONS

 MAXIMUM HEAD CHANGE FOR EACH ITERATION (1 INDICATES THE FIRST INNER ITERATION):

    HEAD CHANGE    HEAD CHANGE    HEAD CHANGE    HEAD CHANGE    HEAD CHANGE 
   LAYER,ROW,COL  LAYER,ROW,COL  LAYER,ROW,COL  LAYER,ROW,COL  LAYER,ROW,COL
 ---------------------------------------------------------------------------
  1  0.1135      0  0.1845      0 -0.2177      0  0.1046      0 -0.4473E-01
   (  1, 29,  3)  (  2, 59, 34)  (  2, 59, 34)  (  2, 59, 34)  (  2, 59, 34)
  0  0.1544E-01  0 -0.9329E-02  0 -0.4795E-02  0 -0.2084E-02  0  0.4900E-02
   (  2, 58, 31)  (  2, 58, 31)  (  2, 58, 31)  (  2, 20, 52)  (  2, 58, 31)
  0 -0.1058E-01  0  0.9232E-02  0 -0.1618E-02  0  0.3160E-03  1  0.3796E-03
   (  2, 59, 34)  (  2, 59, 34)  (  2, 58, 31)  (  2, 19, 52)  (  2, 58, 31)

 MAXIMUM RESIDUAL FOR EACH ITERATION (1 INDICATES THE FIRST INNER ITERATION):

    RESIDUAL       RESIDUAL       RESIDUAL       RESIDUAL       RESIDUAL    
   LAYER,ROW,COL  LAYER,ROW,COL  LAYER,ROW,COL  LAYER,ROW,COL  LAYER,ROW,COL
 ---------------------------------------------------------------------------
  1  0.1481E-03  0  0.1352E-03  0 -0.7644E-04  0 -0.5577E-04  0 -0.4075E-04
   (  2, 29,  3)  (  2, 29,  3)  (  2, 28,  3)  (  2, 28,  3)  (  2, 28,  3)
  0 -0.2825E-04  0  0.1448E-04  0  0.1016E-04  0  0.7342E-05  0 -0.5446E-05
   (  2, 28,  3)  (  2, 28,  4)  (  2, 28,  4)  (  2, 28,  4)  (  1, 28,  4)
  0 -0.4735E-05  0 -0.2823E-05  0 -0.1904E-05  0 -0.1712E-05  1 -0.1653E-05
   (  1, 28,  4)  (  1, 28,  4)  (  1, 28,  4)  (  2, 27,  4)  (  1, 28,  4)



 OUTPUT CONTROL FOR STRESS PERIOD    1   TIME STEP   31
    SAVE HEAD FOR ALL LAYERS
    SAVE DRAWDOWN FOR ALL LAYERS
    SAVE BUDGET
    PRINT BUDGET
 UBDSV2 SAVING "   CONSTANT HEAD" ON UNIT   9 AT TIME STEP 31, STRESS PERIOD   1
 UBDSV1 SAVING "FLOW RIGHT FACE " ON UNIT   9 AT TIME STEP 31, STRESS PERIOD   1
 UBDSV1 SAVING "FLOW FRONT FACE " ON UNIT   9 AT TIME STEP 31, STRESS PERIOD   1
 UBDSV1 SAVING "FLOW LOWER FACE " ON UNIT   9 AT TIME STEP 31, STRESS PERIOD   1
 UBDSV4 SAVING "           WELLS" ON UNIT   9 AT TIME STEP 31, STRESS PERIOD   1
 UBDSV4 SAVING "   RIVER LEAKAGE" ON UNIT   9 AT TIME STEP 31, STRESS PERIOD   1
 UBDSV3 SAVING "              ET" ON UNIT   9 AT TIME STEP 31, STRESS PERIOD   1
 UBDSV4 SAVING " HEAD DEP BOUNDS" ON UNIT   9 AT TIME STEP 31, STRESS PERIOD   1
 UBDSV3 SAVING "        RECHARGE" ON UNIT   9 AT TIME STEP 31, STRESS PERIOD   1
 SOLVING FOR ZETA FOR LAYER     1 ZONE     2
     2 CALLS TO PCG ROUTINE FOR TIME STEP  31 IN STRESS PERIOD    1
     5 TOTAL ITERATIONS

 MAXIMUM HEAD CHANGE FOR EACH ITERATION (1 INDICATES THE FIRST INNER ITERATION):

    HEAD CHANGE    HEAD CHANGE    HEAD CHANGE    HEAD CHANGE    HEAD CHANGE 
   LAYER,ROW,COL  LAYER,ROW,COL  LAYER,ROW,COL  LAYER,ROW,COL  LAYER,ROW,COL
 ---------------------------------------------------------------------------
  1  -4.037      0 -0.2051E-01  0 -0.1041E-02  0 -0.1388E-04  1 -0.4718E-06
   (  1, 29,  3)  (  1, 31,  4)  (  1, 32,  3)  (  1, 31,  4)  (  1, 32,  3)

 MAXIMUM RESIDUAL FOR EACH ITERATION (1 INDICATES THE FIRST INNER ITERATION):

    RESIDUAL       RESIDUAL       RESIDUAL       RESIDUAL       RESIDUAL    
   LAYER,ROW,COL  LAYER,ROW,COL  LAYER,ROW,COL  LAYER,ROW,COL  LAYER,ROW,COL
 ---------------------------------------------------------------------------
  1  0.1805E-05  0  0.1165E-06  0  0.1351E-08  0  0.6295E-10  1  0.2637E-11
   (  1, 31,  4)  (  1, 32,  3)  (  1, 31,  4)  (  1, 32,  3)  (  1, 31,  4)


 SOLVING FOR ZETA FOR LAYER     2 ZONE     2
     2 CALLS TO PCG ROUTINE FOR TIME STEP  31 IN STRESS PERIOD    1
     4 TOTAL ITERATIONS

 MAXIMUM HEAD CHANGE FOR EACH ITERATION (1 INDICATES THE FIRST INNER ITERATION):

    HEAD CHANGE    HEAD CHANGE    HEAD CHANGE    HEAD CHANGE    HEAD CHANGE 
   LAYER,ROW,COL  LAYER,ROW,COL  LAYER,ROW,COL  LAYER,ROW,COL  LAYER,ROW,COL
 ---------------------------------------------------------------------------
  1 -0.8279      0 -0.3420E-01  0 -0.8299E-03  1 -0.5114E-04
   (  1, 26,  5)  (  1, 25,  6)  (  1, 33,  5)  (  1, 34,  4)

 MAXIMUM RESIDUAL FOR EACH ITERATION (1 INDICATES THE FIRST INNER ITERATION):

    RESIDUAL       RESIDUAL       RESIDUAL       RESIDUAL       RESIDUAL    
   LAYER,ROW,COL  LAYER,ROW,COL  LAYER,ROW,COL  LAYER,ROW,COL  LAYER,ROW,COL
 ---------------------------------------------------------------------------
  1  0.2662E-05  0  0.8487E-07  0  0.5912E-08  1  0.4423E-09
   (  1, 25,  6)  (  1, 33,  5)  (  1, 34,  4)  (  1, 33,  5)


 UBUDSV SAVING "      ZETASRF  1" ON UNIT170 AT TIME STEP 31, STRESS PERIOD    1


                      VOLUMETRIC SWI ZONE BUDGET FOR ENTIRE MODEL
                     AT END OF TIME STEP   31 IN STRESS PERIOD   1
                                      ZONE     1
  -----------------------------------------------------------------------------------

        CUMULATIVE VOLUMES      L**3       RATES FOR THIS TIME STEP      L**3/T
        ------------------                 ------------------------

              IN:                                      IN:
              ---                                      ---
             BOUNDARIES =   313619296.0000            BOUNDARIES =           0.1607
          CONSTANT HEAD =           0.0000         CONSTANT HEAD =           0.0000
            ZONE CHANGE =    82464584.0000           ZONE CHANGE =       1.8267E-04
       ZONE CHG TIP/TOE =     3703111.0000      ZONE CHG TIP/TOE =       1.5077E-06
            ZONE MIXING =           0.0000           ZONE MIXING =           0.0000

               TOTAL IN =   399787008.0000              TOTAL IN =           0.1609

             OUT:                                     OUT:
             ----                                     ----
             BOUNDARIES =   286555744.0000            BOUNDARIES =           0.1596
          CONSTANT HEAD =           0.0000         CONSTANT HEAD =           0.0000
            ZONE CHANGE =    21885986.0000           ZONE CHANGE =       1.2664E-03
       ZONE CHG TIP/TOE =     3357316.0000      ZONE CHG TIP/TOE =       1.5077E-06
            ZONE MIXING =           0.0000           ZONE MIXING =           0.0000

              TOTAL OUT =   311799040.0000             TOTAL OUT =           0.1609

               IN - OUT =    87987968.0000              IN - OUT =       1.8284E-05

    PERCENT DISCREPANCY =          24.73     PERCENT DISCREPANCY =           0.01



                      VOLUMETRIC SWI ZONE BUDGET FOR ENTIRE MODEL
                     AT END OF TIME STEP   31 IN STRESS PERIOD   1
                                      ZONE     2
  -----------------------------------------------------------------------------------

        CUMULATIVE VOLUMES      L**3       RATES FOR THIS TIME STEP      L**3/T
        ------------------                 ------------------------

              IN:                                      IN:
              ---                                      ---
             BOUNDARIES =           0.0000            BOUNDARIES =           0.0000
          CONSTANT HEAD =           0.0000         CONSTANT HEAD =           0.0000
            ZONE CHANGE =    18698696.0000           ZONE CHANGE =       1.2644E-03
       ZONE CHG TIP/TOE =     3357316.0000      ZONE CHG TIP/TOE =       1.5077E-06
            ZONE MIXING =           0.0000           ZONE MIXING =           0.0000

               TOTAL IN =    22056012.0000              TOTAL IN =       1.2659E-03

             OUT:                                     OUT:
             ----                                     ----
             BOUNDARIES =    27074640.0000            BOUNDARIES =       1.1039E-03
          CONSTANT HEAD =           0.0000         CONSTANT HEAD =           0.0000
            ZONE CHANGE =     1874075.6250           ZONE CHANGE =       1.6101E-04
       ZONE CHG TIP/TOE =     1391608.3750      ZONE CHG TIP/TOE =           0.0000
            ZONE MIXING =           0.0000           ZONE MIXING =           0.0000

              TOTAL OUT =    30340324.0000             TOTAL OUT =       1.2649E-03

               IN - OUT =    -8284312.0000              IN - OUT =       1.0035E-06

    PERCENT DISCREPANCY =         -31.62     PERCENT DISCREPANCY =           0.08


 HEAD WILL BE SAVED ON UNIT   37 AT END OF TIME STEP   31, STRESS PERIOD    1

 DRAWDOWN WILL BE SAVED ON UNIT   38 AT END OF TIME STEP   31, STRESS PERIOD    1
1
  VOLUMETRIC BUDGET FOR ENTIRE MODEL AT END OF TIME STEP   31, STRESS PERIOD   1
  ------------------------------------------------------------------------------

     CUMULATIVE VOLUMES      L**3       RATES FOR THIS TIME STEP      L**3/T
     ------------------                 ------------------------

           IN:                                      IN:
           ---                                      ---
             STORAGE =           0.0000               STORAGE =           0.0000
       CONSTANT HEAD =           0.0000         CONSTANT HEAD =           0.0000
               WELLS =           0.0000                 WELLS =           0.0000
       RIVER LEAKAGE =    68263648.0000         RIVER LEAKAGE =       3.5028E-02
                  ET =           0.0000                    ET =           0.0000
     HEAD DEP BOUNDS =           0.0000       HEAD DEP BOUNDS =           0.0000
            RECHARGE =   260815536.0000              RECHARGE =           0.1334
          SWIADDTOCH =           0.0000            SWIADDTOCH =           0.0000

            TOTAL IN =   329079168.0000              TOTAL IN =           0.1684

          OUT:                                     OUT:
          ----                                     ----
             STORAGE =           0.0000               STORAGE =           0.0000
       CONSTANT HEAD =           0.0000         CONSTANT HEAD =           0.0000
               WELLS =           0.0000                 WELLS =           0.0000
       RIVER LEAKAGE =    13510484.0000         RIVER LEAKAGE =       6.7138E-03
                  ET =   103366856.0000                    ET =       5.1738E-02
     HEAD DEP BOUNDS =   212212768.0000       HEAD DEP BOUNDS =           0.1100
            RECHARGE =           0.0000              RECHARGE =           0.0000
          SWIADDTOCH =           0.0000            SWIADDTOCH =           0.0000

           TOTAL OUT =   329090112.0000             TOTAL OUT =           0.1684

            IN - OUT =      -10944.0000              IN - OUT =      -1.8924E-06

 PERCENT DISCREPANCY =          -0.00     PERCENT DISCREPANCY =          -0.00






         TIME SUMMARY AT END OF TIME STEP   31 IN STRESS PERIOD    1
                    SECONDS     MINUTES      HOURS       DAYS        YEARS
                    -----------------------------------------------------------
   TIME STEP LENGTH 6.30720E+07 1.05120E+06  17520.      730.00      1.9986    
 STRESS PERIOD TIME 1.95523E+09 3.25872E+07 5.43120E+05  22630.      61.958    
         TOTAL TIME 1.95523E+09 3.25872E+07 5.43120E+05  22630.      61.958    
1
 
 SOLVING FOR HEAD 
     2 CALLS TO PCG ROUTINE FOR TIME STEP  32 IN STRESS PERIOD    1
    17 TOTAL ITERATIONS

 MAXIMUM HEAD CHANGE FOR EACH ITERATION (1 INDICATES THE FIRST INNER ITERATION):

    HEAD CHANGE    HEAD CHANGE    HEAD CHANGE    HEAD CHANGE    HEAD CHANGE 
   LAYER,ROW,COL  LAYER,ROW,COL  LAYER,ROW,COL  LAYER,ROW,COL  LAYER,ROW,COL
 ---------------------------------------------------------------------------
  1  0.7112E-01  0 -0.1751E-01  0  0.8068E-01  0 -0.1180      0  0.4068E-01
   (  1, 29,  3)  (  2, 19, 52)  (  2, 59, 34)  (  2, 59, 34)  (  2, 59, 34)
  0  0.5906E-02  0 -0.7665E-02  0 -0.5492E-02  0  0.4357E-02  0  0.2617E-02
   (  2, 58, 31)  (  2, 58, 31)  (  2, 58, 31)  (  2, 58, 31)  (  2, 58, 31)
  0  0.1255E-02  0  0.3291E-02  0 -0.3534E-02  0  0.2979E-02  0 -0.1647E-02
   (  2,  3, 32)  (  2, 59, 34)  (  2, 59, 34)  (  2, 59, 34)  (  2, 59, 34)
  0  0.1667E-03  1  0.1245E-03
   (  2, 57, 33)  (  2, 52, 26)

 MAXIMUM RESIDUAL FOR EACH ITERATION (1 INDICATES THE FIRST INNER ITERATION):

    RESIDUAL       RESIDUAL       RESIDUAL       RESIDUAL       RESIDUAL    
   LAYER,ROW,COL  LAYER,ROW,COL  LAYER,ROW,COL  LAYER,ROW,COL  LAYER,ROW,COL
 ---------------------------------------------------------------------------
  1 -0.1261E-03  0 -0.1179E-03  0 -0.4433E-04  0 -0.3957E-04  0 -0.2937E-04
   (  1, 29,  3)  (  1, 29,  3)  (  2, 28,  3)  (  2, 28,  3)  (  2, 28,  3)
  0 -0.1839E-04  0 -0.1348E-04  0  0.1035E-04  0  0.5453E-05  0  0.4069E-05
   (  2, 28,  3)  (  2, 28,  3)  (  2, 28,  4)  (  2, 28,  4)  (  2, 28,  4)
  0  0.2777E-05  0  0.2416E-05  0  0.1892E-05  0 -0.1679E-05  0 -0.8816E-06
   (  2, 28,  4)  (  2, 28,  4)  (  2, 28,  4)  (  1, 28,  4)  (  1, 28,  4)
  0 -0.3880E-06  1 -0.3333E-06
   (  1, 28,  4)  (  1, 28,  4)



 OUTPUT CONTROL FOR STRESS PERIOD    1   TIME STEP   32
    SAVE HEAD FOR ALL LAYERS
    SAVE DRAWDOWN FOR ALL LAYERS
    SAVE BUDGET
    PRINT BUDGET
 UBDSV2 SAVING "   CONSTANT HEAD" ON UNIT   9 AT TIME STEP 32, STRESS PERIOD   1
 UBDSV1 SAVING "FLOW RIGHT FACE " ON UNIT   9 AT TIME STEP 32, STRESS PERIOD   1
 UBDSV1 SAVING "FLOW FRONT FACE " ON UNIT   9 AT TIME STEP 32, STRESS PERIOD   1
 UBDSV1 SAVING "FLOW LOWER FACE " ON UNIT   9 AT TIME STEP 32, STRESS PERIOD   1
 UBDSV4 SAVING "           WELLS" ON UNIT   9 AT TIME STEP 32, STRESS PERIOD   1
 UBDSV4 SAVING "   RIVER LEAKAGE" ON UNIT   9 AT TIME STEP 32, STRESS PERIOD   1
 UBDSV3 SAVING "              ET" ON UNIT   9 AT TIME STEP 32, STRESS PERIOD   1
 UBDSV4 SAVING " HEAD DEP BOUNDS" ON UNIT   9 AT TIME STEP 32, STRESS PERIOD   1
 UBDSV3 SAVING "        RECHARGE" ON UNIT   9 AT TIME STEP 32, STRESS PERIOD   1
 SOLVING FOR ZETA FOR LAYER     1 ZONE     2
     2 CALLS TO PCG ROUTINE FOR TIME STEP  32 IN STRESS PERIOD    1
     5 TOTAL ITERATIONS

 MAXIMUM HEAD CHANGE FOR EACH ITERATION (1 INDICATES THE FIRST INNER ITERATION):

    HEAD CHANGE    HEAD CHANGE    HEAD CHANGE    HEAD CHANGE    HEAD CHANGE 
   LAYER,ROW,COL  LAYER,ROW,COL  LAYER,ROW,COL  LAYER,ROW,COL  LAYER,ROW,COL
 ---------------------------------------------------------------------------
  1  -2.788      0 -0.5569E-01  0 -0.1746E-02  0 -0.3161E-04  1 -0.1135E-05
   (  1, 29,  3)  (  1, 33,  4)  (  1, 34,  3)  (  1, 31,  4)  (  1, 32,  3)

 MAXIMUM RESIDUAL FOR EACH ITERATION (1 INDICATES THE FIRST INNER ITERATION):

    RESIDUAL       RESIDUAL       RESIDUAL       RESIDUAL       RESIDUAL    
   LAYER,ROW,COL  LAYER,ROW,COL  LAYER,ROW,COL  LAYER,ROW,COL  LAYER,ROW,COL
 ---------------------------------------------------------------------------
  1  0.4395E-05  0  0.1211E-06  0  0.2922E-08  0  0.1354E-09  1  0.6316E-11
   (  1, 33,  4)  (  1, 34,  3)  (  1, 31,  4)  (  1, 32,  3)  (  1, 31,  4)


 SOLVING FOR ZETA FOR LAYER     2 ZONE     2
     2 CALLS TO PCG ROUTINE FOR TIME STEP  32 IN STRESS PERIOD    1
     5 TOTAL ITERATIONS

 MAXIMUM HEAD CHANGE FOR EACH ITERATION (1 INDICATES THE FIRST INNER ITERATION):

    HEAD CHANGE    HEAD CHANGE    HEAD CHANGE    HEAD CHANGE    HEAD CHANGE 
   LAYER,ROW,COL  LAYER,ROW,COL  LAYER,ROW,COL  LAYER,ROW,COL  LAYER,ROW,COL
 ---------------------------------------------------------------------------
  1 -0.5133      0  0.4239E-01  0  0.1897E-02  0  0.8216E-04  1  0.2532E-05
   (  1, 26,  5)  (  1, 33,  5)  (  1, 34,  4)  (  1, 25,  6)  (  1, 26,  5)

 MAXIMUM RESIDUAL FOR EACH ITERATION (1 INDICATES THE FIRST INNER ITERATION):

    RESIDUAL       RESIDUAL       RESIDUAL       RESIDUAL       RESIDUAL    
   LAYER,ROW,COL  LAYER,ROW,COL  LAYER,ROW,COL  LAYER,ROW,COL  LAYER,ROW,COL
 ---------------------------------------------------------------------------
  1 -0.4472E-05  0 -0.2109E-06  0 -0.6347E-08  0 -0.2798E-09  1 -0.8377E-11
   (  1, 33,  5)  (  1, 34,  4)  (  1, 25,  6)  (  1, 26,  5)  (  1, 25,  6)


 UBUDSV SAVING "      ZETASRF  1" ON UNIT170 AT TIME STEP 32, STRESS PERIOD    1


                      VOLUMETRIC SWI ZONE BUDGET FOR ENTIRE MODEL
                     AT END OF TIME STEP   32 IN STRESS PERIOD   1
                                      ZONE     1
  -----------------------------------------------------------------------------------

        CUMULATIVE VOLUMES      L**3       RATES FOR THIS TIME STEP      L**3/T
        ------------------                 ------------------------

              IN:                                      IN:
              ---                                      ---
             BOUNDARIES =   323755744.0000            BOUNDARIES =           0.1607
          CONSTANT HEAD =           0.0000         CONSTANT HEAD =           0.0000
            ZONE CHANGE =    82474808.0000           ZONE CHANGE =       1.6208E-04
       ZONE CHG TIP/TOE =     3703528.7500      ZONE CHG TIP/TOE =       6.6225E-06
            ZONE MIXING =           0.0000           ZONE MIXING =           0.0000

               TOTAL IN =   409934080.0000              TOTAL IN =           0.1609

             OUT:                                     OUT:
             ----                                     ----
             BOUNDARIES =   296628928.0000            BOUNDARIES =           0.1597
          CONSTANT HEAD =           0.0000         CONSTANT HEAD =           0.0000
            ZONE CHANGE =    21957892.0000           ZONE CHANGE =       1.1401E-03
       ZONE CHG TIP/TOE =     3357733.7500      ZONE CHG TIP/TOE =       6.6225E-06
            ZONE MIXING =           0.0000           ZONE MIXING =           0.0000

              TOTAL OUT =   321944544.0000             TOTAL OUT =           0.1609

               IN - OUT =    87989536.0000              IN - OUT =       2.4870E-05

    PERCENT DISCREPANCY =          24.04     PERCENT DISCREPANCY =           0.02



                      VOLUMETRIC SWI ZONE BUDGET FOR ENTIRE MODEL
                     AT END OF TIME STEP   32 IN STRESS PERIOD   1
                                      ZONE     2
  -----------------------------------------------------------------------------------

        CUMULATIVE VOLUMES      L**3       RATES FOR THIS TIME STEP      L**3/T
        ------------------                 ------------------------

              IN:                                      IN:
              ---                                      ---
             BOUNDARIES =           0.0000            BOUNDARIES =           0.0000
          CONSTANT HEAD =           0.0000         CONSTANT HEAD =           0.0000
            ZONE CHANGE =    18770588.0000           ZONE CHANGE =       1.1398E-03
       ZONE CHG TIP/TOE =     3357733.7500      ZONE CHG TIP/TOE =       6.6225E-06
            ZONE MIXING =           0.0000           ZONE MIXING =           0.0000

               TOTAL IN =    22128322.0000              TOTAL IN =       1.1465E-03

             OUT:                                     OUT:
             ----                                     ----
             BOUNDARIES =    27138008.0000            BOUNDARIES =       1.0047E-03
          CONSTANT HEAD =           0.0000         CONSTANT HEAD =           0.0000
            ZONE CHANGE =     1882563.8750           ZONE CHANGE =       1.3458E-04
       ZONE CHG TIP/TOE =     1392026.1250      ZONE CHG TIP/TOE =       6.6225E-06
            ZONE MIXING =           0.0000           ZONE MIXING =           0.0000

              TOTAL OUT =    30412598.0000             TOTAL OUT =       1.1459E-03

               IN - OUT =    -8284276.0000              IN - OUT =       5.6415E-07

    PERCENT DISCREPANCY =         -31.53     PERCENT DISCREPANCY =           0.05


 HEAD WILL BE SAVED ON UNIT   37 AT END OF TIME STEP   32, STRESS PERIOD    1

 DRAWDOWN WILL BE SAVED ON UNIT   38 AT END OF TIME STEP   32, STRESS PERIOD    1
1
  VOLUMETRIC BUDGET FOR ENTIRE MODEL AT END OF TIME STEP   32, STRESS PERIOD   1
  ------------------------------------------------------------------------------

     CUMULATIVE VOLUMES      L**3       RATES FOR THIS TIME STEP      L**3/T
     ------------------                 ------------------------

           IN:                                      IN:
           ---                                      ---
             STORAGE =           0.0000               STORAGE =           0.0000
       CONSTANT HEAD =           0.0000         CONSTANT HEAD =           0.0000
               WELLS =           0.0000                 WELLS =           0.0000
       RIVER LEAKAGE =    70472944.0000         RIVER LEAKAGE =       3.5028E-02
                  ET =           0.0000                    ET =           0.0000
     HEAD DEP BOUNDS =           0.0000       HEAD DEP BOUNDS =           0.0000
            RECHARGE =   269228928.0000              RECHARGE =           0.1334
          SWIADDTOCH =           0.0000            SWIADDTOCH =           0.0000

            TOTAL IN =   339701888.0000              TOTAL IN =           0.1684

          OUT:                                     OUT:
          ----                                     ----
             STORAGE =           0.0000               STORAGE =           0.0000
       CONSTANT HEAD =           0.0000         CONSTANT HEAD =           0.0000
               WELLS =           0.0000                 WELLS =           0.0000
       RIVER LEAKAGE =    13933738.0000         RIVER LEAKAGE =       6.7106E-03
                  ET =   106629440.0000                    ET =       5.1728E-02
     HEAD DEP BOUNDS =   219149744.0000       HEAD DEP BOUNDS =           0.1100
            RECHARGE =           0.0000              RECHARGE =           0.0000
          SWIADDTOCH =           0.0000            SWIADDTOCH =           0.0000

           TOTAL OUT =   339712928.0000             TOTAL OUT =           0.1684

            IN - OUT =      -11040.0000              IN - OUT =      -1.8179E-06

 PERCENT DISCREPANCY =          -0.00     PERCENT DISCREPANCY =          -0.00






         TIME SUMMARY AT END OF TIME STEP   32 IN STRESS PERIOD    1
                    SECONDS     MINUTES      HOURS       DAYS        YEARS
                    -----------------------------------------------------------
   TIME STEP LENGTH 6.30720E+07 1.05120E+06  17520.      730.00      1.9986    
 STRESS PERIOD TIME 2.01830E+09 3.36384E+07 5.60640E+05  23360.      63.956    
         TOTAL TIME 2.01830E+09 3.36384E+07 5.60640E+05  23360.      63.956    
1
 
 SOLVING FOR HEAD 
     2 CALLS TO PCG ROUTINE FOR TIME STEP  33 IN STRESS PERIOD    1
    15 TOTAL ITERATIONS

 MAXIMUM HEAD CHANGE FOR EACH ITERATION (1 INDICATES THE FIRST INNER ITERATION):

    HEAD CHANGE    HEAD CHANGE    HEAD CHANGE    HEAD CHANGE    HEAD CHANGE 
   LAYER,ROW,COL  LAYER,ROW,COL  LAYER,ROW,COL  LAYER,ROW,COL  LAYER,ROW,COL
 ---------------------------------------------------------------------------
  1  0.4170E-01  0 -0.3259E-01  0  0.4506E-01  0 -0.3788E-01  0  0.2820E-01
   (  1, 29,  3)  (  2, 59, 34)  (  2, 59, 34)  (  2, 59, 34)  (  2, 59, 34)
  0  0.6727E-02  0 -0.4689E-02  0  0.1919E-02  0 -0.2284E-02  0  0.1427E-02
   (  2,  3, 32)  (  2,  3, 32)  (  2, 22, 49)  (  2, 58, 31)  (  2, 58, 31)
  0  0.1541E-02  0 -0.3468E-02  0  0.3517E-02  0 -0.4065E-03  1  0.4403E-03
   (  2, 58, 31)  (  2, 59, 34)  (  2, 59, 34)  (  2, 59, 34)  (  2, 58, 31)

 MAXIMUM RESIDUAL FOR EACH ITERATION (1 INDICATES THE FIRST INNER ITERATION):

    RESIDUAL       RESIDUAL       RESIDUAL       RESIDUAL       RESIDUAL    
   LAYER,ROW,COL  LAYER,ROW,COL  LAYER,ROW,COL  LAYER,ROW,COL  LAYER,ROW,COL
 ---------------------------------------------------------------------------
  1 -0.1445E-03  0 -0.2592E-04  0 -0.2489E-04  0 -0.2060E-04  0 -0.1702E-04
   (  1, 29,  3)  (  2, 28,  3)  (  2, 28,  3)  (  2, 28,  3)  (  2, 28,  3)
  0 -0.1165E-04  0  0.8367E-05  0  0.7367E-05  0  0.5073E-05  0  0.3118E-05
   (  2, 28,  3)  (  2, 28,  4)  (  2, 28,  4)  (  2, 28,  4)  (  2, 28,  4)
  0 -0.1979E-05  0 -0.1434E-05  0 -0.1273E-05  0 -0.5370E-06  1 -0.4982E-06
   (  1, 28,  4)  (  1, 28,  4)  (  1, 28,  4)  (  1, 28,  4)  (  1, 28,  4)



 OUTPUT CONTROL FOR STRESS PERIOD    1   TIME STEP   33
    SAVE HEAD FOR ALL LAYERS
    SAVE DRAWDOWN FOR ALL LAYERS
    SAVE BUDGET
    PRINT BUDGET
 UBDSV2 SAVING "   CONSTANT HEAD" ON UNIT   9 AT TIME STEP 33, STRESS PERIOD   1
 UBDSV1 SAVING "FLOW RIGHT FACE " ON UNIT   9 AT TIME STEP 33, STRESS PERIOD   1
 UBDSV1 SAVING "FLOW FRONT FACE " ON UNIT   9 AT TIME STEP 33, STRESS PERIOD   1
 UBDSV1 SAVING "FLOW LOWER FACE " ON UNIT   9 AT TIME STEP 33, STRESS PERIOD   1
 UBDSV4 SAVING "           WELLS" ON UNIT   9 AT TIME STEP 33, STRESS PERIOD   1
 UBDSV4 SAVING "   RIVER LEAKAGE" ON UNIT   9 AT TIME STEP 33, STRESS PERIOD   1
 UBDSV3 SAVING "              ET" ON UNIT   9 AT TIME STEP 33, STRESS PERIOD   1
 UBDSV4 SAVING " HEAD DEP BOUNDS" ON UNIT   9 AT TIME STEP 33, STRESS PERIOD   1
 UBDSV3 SAVING "        RECHARGE" ON UNIT   9 AT TIME STEP 33, STRESS PERIOD   1
 SOLVING FOR ZETA FOR LAYER     1 ZONE     2
     2 CALLS TO PCG ROUTINE FOR TIME STEP  33 IN STRESS PERIOD    1
     4 TOTAL ITERATIONS

 MAXIMUM HEAD CHANGE FOR EACH ITERATION (1 INDICATES THE FIRST INNER ITERATION):

    HEAD CHANGE    HEAD CHANGE    HEAD CHANGE    HEAD CHANGE    HEAD CHANGE 
   LAYER,ROW,COL  LAYER,ROW,COL  LAYER,ROW,COL  LAYER,ROW,COL  LAYER,ROW,COL
 ---------------------------------------------------------------------------
  1  -1.882      0 -0.2674E-01  0 -0.9131E-03  1 -0.1848E-04
   (  1, 29,  3)  (  1, 33,  4)  (  1, 33,  3)  (  1, 31,  4)

 MAXIMUM RESIDUAL FOR EACH ITERATION (1 INDICATES THE FIRST INNER ITERATION):

    RESIDUAL       RESIDUAL       RESIDUAL       RESIDUAL       RESIDUAL    
   LAYER,ROW,COL  LAYER,ROW,COL  LAYER,ROW,COL  LAYER,ROW,COL  LAYER,ROW,COL
 ---------------------------------------------------------------------------
  1  0.2037E-05  0  0.9179E-07  0  0.1760E-08  1  0.9338E-10
   (  1, 33,  4)  (  1, 32,  3)  (  1, 31,  4)  (  1, 32,  3)


 SOLVING FOR ZETA FOR LAYER     2 ZONE     2
     2 CALLS TO PCG ROUTINE FOR TIME STEP  33 IN STRESS PERIOD    1
     4 TOTAL ITERATIONS

 MAXIMUM HEAD CHANGE FOR EACH ITERATION (1 INDICATES THE FIRST INNER ITERATION):

    HEAD CHANGE    HEAD CHANGE    HEAD CHANGE    HEAD CHANGE    HEAD CHANGE 
   LAYER,ROW,COL  LAYER,ROW,COL  LAYER,ROW,COL  LAYER,ROW,COL  LAYER,ROW,COL
 ---------------------------------------------------------------------------
  1  -1.293      0 -0.1027E-01  0 -0.3066E-03  1  0.8171E-05
   (  1, 25,  5)  (  1, 34,  4)  (  1, 33,  5)  (  1,  6,  9)

 MAXIMUM RESIDUAL FOR EACH ITERATION (1 INDICATES THE FIRST INNER ITERATION):

    RESIDUAL       RESIDUAL       RESIDUAL       RESIDUAL       RESIDUAL    
   LAYER,ROW,COL  LAYER,ROW,COL  LAYER,ROW,COL  LAYER,ROW,COL  LAYER,ROW,COL
 ---------------------------------------------------------------------------
  1  0.1271E-05  0  0.2871E-07  0 -0.6394E-09  1  0.1367E-10
   (  1, 34,  4)  (  1, 33,  5)  (  1,  6,  9)  (  1, 33,  5)


 UBUDSV SAVING "      ZETASRF  1" ON UNIT170 AT TIME STEP 33, STRESS PERIOD    1


                      VOLUMETRIC SWI ZONE BUDGET FOR ENTIRE MODEL
                     AT END OF TIME STEP   33 IN STRESS PERIOD   1
                                      ZONE     1
  -----------------------------------------------------------------------------------

        CUMULATIVE VOLUMES      L**3       RATES FOR THIS TIME STEP      L**3/T
        ------------------                 ------------------------

              IN:                                      IN:
              ---                                      ---
             BOUNDARIES =   333892544.0000            BOUNDARIES =           0.1607
          CONSTANT HEAD =           0.0000         CONSTANT HEAD =           0.0000
            ZONE CHANGE =    82481184.0000           ZONE CHANGE =       1.0104E-04
       ZONE CHG TIP/TOE =     3703528.7500      ZONE CHG TIP/TOE =           0.0000
            ZONE MIXING =           0.0000           ZONE MIXING =           0.0000

               TOTAL IN =   420077248.0000              TOTAL IN =           0.1608

             OUT:                                     OUT:
             ----                                     ----
             BOUNDARIES =   306707008.0000            BOUNDARIES =           0.1598
          CONSTANT HEAD =           0.0000         CONSTANT HEAD =           0.0000
            ZONE CHANGE =    22021116.0000           ZONE CHANGE =       1.0024E-03
       ZONE CHG TIP/TOE =     3357733.7500      ZONE CHG TIP/TOE =           0.0000
            ZONE MIXING =           0.0000           ZONE MIXING =           0.0000

              TOTAL OUT =   332085856.0000             TOTAL OUT =           0.1608

               IN - OUT =    87991392.0000              IN - OUT =       2.9966E-05

    PERCENT DISCREPANCY =          23.40     PERCENT DISCREPANCY =           0.02



                      VOLUMETRIC SWI ZONE BUDGET FOR ENTIRE MODEL
                     AT END OF TIME STEP   33 IN STRESS PERIOD   1
                                      ZONE     2
  -----------------------------------------------------------------------------------

        CUMULATIVE VOLUMES      L**3       RATES FOR THIS TIME STEP      L**3/T
        ------------------                 ------------------------

              IN:                                      IN:
              ---                                      ---
             BOUNDARIES =           0.0000            BOUNDARIES =           0.0000
          CONSTANT HEAD =           0.0000         CONSTANT HEAD =           0.0000
            ZONE CHANGE =    18833810.0000           ZONE CHANGE =       1.0024E-03
       ZONE CHG TIP/TOE =     3357733.7500      ZONE CHG TIP/TOE =           0.0000
            ZONE MIXING =           0.0000           ZONE MIXING =           0.0000

               TOTAL IN =    22191544.0000              TOTAL IN =       1.0024E-03

             OUT:                                     OUT:
             ----                                     ----
             BOUNDARIES =    27196898.0000            BOUNDARIES =       9.3371E-04
          CONSTANT HEAD =           0.0000         CONSTANT HEAD =           0.0000
            ZONE CHANGE =     1886826.0000           ZONE CHANGE =       6.7576E-05
       ZONE CHG TIP/TOE =     1392026.1250      ZONE CHG TIP/TOE =           0.0000
            ZONE MIXING =           0.0000           ZONE MIXING =           0.0000

              TOTAL OUT =    30475750.0000             TOTAL OUT =       1.0013E-03

               IN - OUT =    -8284206.0000              IN - OUT =       1.1019E-06

    PERCENT DISCREPANCY =         -31.46     PERCENT DISCREPANCY =           0.11


 HEAD WILL BE SAVED ON UNIT   37 AT END OF TIME STEP   33, STRESS PERIOD    1

 DRAWDOWN WILL BE SAVED ON UNIT   38 AT END OF TIME STEP   33, STRESS PERIOD    1
1
  VOLUMETRIC BUDGET FOR ENTIRE MODEL AT END OF TIME STEP   33, STRESS PERIOD   1
  ------------------------------------------------------------------------------

     CUMULATIVE VOLUMES      L**3       RATES FOR THIS TIME STEP      L**3/T
     ------------------                 ------------------------

           IN:                                      IN:
           ---                                      ---
             STORAGE =           0.0000               STORAGE =           0.0000
       CONSTANT HEAD =           0.0000         CONSTANT HEAD =           0.0000
               WELLS =           0.0000                 WELLS =           0.0000
       RIVER LEAKAGE =    72682424.0000         RIVER LEAKAGE =       3.5031E-02
                  ET =           0.0000                    ET =           0.0000
     HEAD DEP BOUNDS =           0.0000       HEAD DEP BOUNDS =           0.0000
            RECHARGE =   277642336.0000              RECHARGE =           0.1334
          SWIADDTOCH =           0.0000            SWIADDTOCH =           0.0000

            TOTAL IN =   350324768.0000              TOTAL IN =           0.1684

          OUT:                                     OUT:
          ----                                     ----
             STORAGE =           0.0000               STORAGE =           0.0000
       CONSTANT HEAD =           0.0000         CONSTANT HEAD =           0.0000
               WELLS =           0.0000                 WELLS =           0.0000
       RIVER LEAKAGE =    14356588.0000         RIVER LEAKAGE =       6.7042E-03
                  ET =   109890560.0000                    ET =       5.1705E-02
     HEAD DEP BOUNDS =   226088800.0000       HEAD DEP BOUNDS =           0.1100
            RECHARGE =           0.0000              RECHARGE =           0.0000
          SWIADDTOCH =           0.0000            SWIADDTOCH =           0.0000

           TOTAL OUT =   350335936.0000             TOTAL OUT =           0.1684

            IN - OUT =      -11168.0000              IN - OUT =      -2.3842E-06

 PERCENT DISCREPANCY =          -0.00     PERCENT DISCREPANCY =          -0.00






         TIME SUMMARY AT END OF TIME STEP   33 IN STRESS PERIOD    1
                    SECONDS     MINUTES      HOURS       DAYS        YEARS
                    -----------------------------------------------------------
   TIME STEP LENGTH 6.30720E+07 1.05120E+06  17520.      730.00      1.9986    
 STRESS PERIOD TIME 2.08138E+09 3.46896E+07 5.78160E+05  24090.      65.955    
         TOTAL TIME 2.08138E+09 3.46896E+07 5.78160E+05  24090.      65.955    
1
 
 SOLVING FOR HEAD 
     2 CALLS TO PCG ROUTINE FOR TIME STEP  34 IN STRESS PERIOD    1
     9 TOTAL ITERATIONS

 MAXIMUM HEAD CHANGE FOR EACH ITERATION (1 INDICATES THE FIRST INNER ITERATION):

    HEAD CHANGE    HEAD CHANGE    HEAD CHANGE    HEAD CHANGE    HEAD CHANGE 
   LAYER,ROW,COL  LAYER,ROW,COL  LAYER,ROW,COL  LAYER,ROW,COL  LAYER,ROW,COL
 ---------------------------------------------------------------------------
  1  0.2602E-01  0  0.9718E-02  0 -0.9585E-01  0  0.9437E-01  0 -0.4779E-02
   (  1, 29,  3)  (  2, 59, 34)  (  2, 59, 34)  (  2, 59, 34)  (  2, 58, 31)
  0 -0.1278E-02  0  0.2528E-02  0  0.9264E-03  1 -0.9828E-03
   (  2,  5, 31)  (  2, 58, 31)  (  2, 22, 49)  (  2, 58, 31)

 MAXIMUM RESIDUAL FOR EACH ITERATION (1 INDICATES THE FIRST INNER ITERATION):

    RESIDUAL       RESIDUAL       RESIDUAL       RESIDUAL       RESIDUAL    
   LAYER,ROW,COL  LAYER,ROW,COL  LAYER,ROW,COL  LAYER,ROW,COL  LAYER,ROW,COL
 ---------------------------------------------------------------------------
  1 -0.9454E-04  0 -0.8972E-04  0 -0.2053E-04  0 -0.1630E-04  0 -0.1383E-04
   (  1, 29,  3)  (  1, 29,  3)  (  2, 28,  3)  (  2, 28,  3)  (  2, 28,  3)
  0 -0.6317E-05  0 -0.4232E-05  0  0.3555E-05  1  0.3348E-05
   (  2, 28,  3)  (  1, 28,  4)  (  2, 28,  4)  (  2, 28,  4)



 OUTPUT CONTROL FOR STRESS PERIOD    1   TIME STEP   34
    SAVE HEAD FOR ALL LAYERS
    SAVE DRAWDOWN FOR ALL LAYERS
    SAVE BUDGET
    PRINT BUDGET
 UBDSV2 SAVING "   CONSTANT HEAD" ON UNIT   9 AT TIME STEP 34, STRESS PERIOD   1
 UBDSV1 SAVING "FLOW RIGHT FACE " ON UNIT   9 AT TIME STEP 34, STRESS PERIOD   1
 UBDSV1 SAVING "FLOW FRONT FACE " ON UNIT   9 AT TIME STEP 34, STRESS PERIOD   1
 UBDSV1 SAVING "FLOW LOWER FACE " ON UNIT   9 AT TIME STEP 34, STRESS PERIOD   1
 UBDSV4 SAVING "           WELLS" ON UNIT   9 AT TIME STEP 34, STRESS PERIOD   1
 UBDSV4 SAVING "   RIVER LEAKAGE" ON UNIT   9 AT TIME STEP 34, STRESS PERIOD   1
 UBDSV3 SAVING "              ET" ON UNIT   9 AT TIME STEP 34, STRESS PERIOD   1
 UBDSV4 SAVING " HEAD DEP BOUNDS" ON UNIT   9 AT TIME STEP 34, STRESS PERIOD   1
 UBDSV3 SAVING "        RECHARGE" ON UNIT   9 AT TIME STEP 34, STRESS PERIOD   1
 SOLVING FOR ZETA FOR LAYER     1 ZONE     2
     2 CALLS TO PCG ROUTINE FOR TIME STEP  34 IN STRESS PERIOD    1
     4 TOTAL ITERATIONS

 MAXIMUM HEAD CHANGE FOR EACH ITERATION (1 INDICATES THE FIRST INNER ITERATION):

    HEAD CHANGE    HEAD CHANGE    HEAD CHANGE    HEAD CHANGE    HEAD CHANGE 
   LAYER,ROW,COL  LAYER,ROW,COL  LAYER,ROW,COL  LAYER,ROW,COL  LAYER,ROW,COL
 ---------------------------------------------------------------------------
  1  -1.263      0 -0.1750E-01  0 -0.7072E-03  1  0.1106E-04
   (  1, 29,  3)  (  1, 31,  4)  (  1, 32,  3)  (  1, 33,  4)

 MAXIMUM RESIDUAL FOR EACH ITERATION (1 INDICATES THE FIRST INNER ITERATION):

    RESIDUAL       RESIDUAL       RESIDUAL       RESIDUAL       RESIDUAL    
   LAYER,ROW,COL  LAYER,ROW,COL  LAYER,ROW,COL  LAYER,ROW,COL  LAYER,ROW,COL
 ---------------------------------------------------------------------------
  1  0.1533E-05  0  0.7936E-07  0  0.1059E-08  1  0.5634E-10
   (  1, 31,  4)  (  1, 32,  3)  (  1, 31,  4)  (  1, 32,  3)


 SOLVING FOR ZETA FOR LAYER     2 ZONE     2
     2 CALLS TO PCG ROUTINE FOR TIME STEP  34 IN STRESS PERIOD    1
     4 TOTAL ITERATIONS

 MAXIMUM HEAD CHANGE FOR EACH ITERATION (1 INDICATES THE FIRST INNER ITERATION):

    HEAD CHANGE    HEAD CHANGE    HEAD CHANGE    HEAD CHANGE    HEAD CHANGE 
   LAYER,ROW,COL  LAYER,ROW,COL  LAYER,ROW,COL  LAYER,ROW,COL  LAYER,ROW,COL
 ---------------------------------------------------------------------------
  1 -0.7325      0 -0.8444E-02  0 -0.1031E-03  1  0.6233E-05
   (  1, 25,  5)  (  1, 34,  4)  (  1, 33,  5)  (  1,  6,  9)

 MAXIMUM RESIDUAL FOR EACH ITERATION (1 INDICATES THE FIRST INNER ITERATION):

    RESIDUAL       RESIDUAL       RESIDUAL       RESIDUAL       RESIDUAL    
   LAYER,ROW,COL  LAYER,ROW,COL  LAYER,ROW,COL  LAYER,ROW,COL  LAYER,ROW,COL
 ---------------------------------------------------------------------------
  1  0.8611E-06  0  0.1095E-07  0 -0.5074E-09  1  0.2408E-10
   (  1, 34,  4)  (  1, 33,  5)  (  1,  6,  9)  (  1, 33,  5)


 UBUDSV SAVING "      ZETASRF  1" ON UNIT170 AT TIME STEP 34, STRESS PERIOD    1


                      VOLUMETRIC SWI ZONE BUDGET FOR ENTIRE MODEL
                     AT END OF TIME STEP   34 IN STRESS PERIOD   1
                                      ZONE     1
  -----------------------------------------------------------------------------------

        CUMULATIVE VOLUMES      L**3       RATES FOR THIS TIME STEP      L**3/T
        ------------------                 ------------------------

              IN:                                      IN:
              ---                                      ---
             BOUNDARIES =   344029312.0000            BOUNDARIES =           0.1607
          CONSTANT HEAD =           0.0000         CONSTANT HEAD =           0.0000
            ZONE CHANGE =    82485152.0000           ZONE CHANGE =       6.2897E-05
       ZONE CHG TIP/TOE =     3719528.7500      ZONE CHG TIP/TOE =       2.5368E-04
            ZONE MIXING =           0.0000           ZONE MIXING =           0.0000

               TOTAL IN =   430233984.0000              TOTAL IN =           0.1610

             OUT:                                     OUT:
             ----                                     ----
             BOUNDARIES =   316789696.0000            BOUNDARIES =           0.1599
          CONSTANT HEAD =           0.0000         CONSTANT HEAD =           0.0000
            ZONE CHANGE =    22078732.0000           ZONE CHANGE =       9.1348E-04
       ZONE CHG TIP/TOE =     3373733.7500      ZONE CHG TIP/TOE =       2.5368E-04
            ZONE MIXING =           0.0000           ZONE MIXING =           0.0000

              TOTAL OUT =   342242176.0000             TOTAL OUT =           0.1610

               IN - OUT =    87991808.0000              IN - OUT =       7.1079E-06

    PERCENT DISCREPANCY =          22.78     PERCENT DISCREPANCY =           0.00



                      VOLUMETRIC SWI ZONE BUDGET FOR ENTIRE MODEL
                     AT END OF TIME STEP   34 IN STRESS PERIOD   1
                                      ZONE     2
  -----------------------------------------------------------------------------------

        CUMULATIVE VOLUMES      L**3       RATES FOR THIS TIME STEP      L**3/T
        ------------------                 ------------------------

              IN:                                      IN:
              ---                                      ---
             BOUNDARIES =           0.0000            BOUNDARIES =           0.0000
          CONSTANT HEAD =           0.0000         CONSTANT HEAD =           0.0000
            ZONE CHANGE =    18891330.0000           ZONE CHANGE =       9.1199E-04
       ZONE CHG TIP/TOE =     3373733.7500      ZONE CHG TIP/TOE =       2.5368E-04
            ZONE MIXING =           0.0000           ZONE MIXING =           0.0000

               TOTAL IN =    22265064.0000              TOTAL IN =       1.1657E-03

             OUT:                                     OUT:
             ----                                     ----
             BOUNDARIES =    27251100.0000            BOUNDARIES =       8.5937E-04
          CONSTANT HEAD =           0.0000         CONSTANT HEAD =           0.0000
            ZONE CHANGE =     1890328.3750           ZONE CHANGE =       5.5530E-05
       ZONE CHG TIP/TOE =     1408026.1250      ZONE CHG TIP/TOE =       2.5368E-04
            ZONE MIXING =           0.0000           ZONE MIXING =           0.0000

              TOTAL OUT =    30549454.0000             TOTAL OUT =       1.1686E-03

               IN - OUT =    -8284390.0000              IN - OUT =      -2.9090E-06

    PERCENT DISCREPANCY =         -31.37     PERCENT DISCREPANCY =          -0.25


 HEAD WILL BE SAVED ON UNIT   37 AT END OF TIME STEP   34, STRESS PERIOD    1

 DRAWDOWN WILL BE SAVED ON UNIT   38 AT END OF TIME STEP   34, STRESS PERIOD    1
1
  VOLUMETRIC BUDGET FOR ENTIRE MODEL AT END OF TIME STEP   34, STRESS PERIOD   1
  ------------------------------------------------------------------------------

     CUMULATIVE VOLUMES      L**3       RATES FOR THIS TIME STEP      L**3/T
     ------------------                 ------------------------

           IN:                                      IN:
           ---                                      ---
             STORAGE =           0.0000               STORAGE =           0.0000
       CONSTANT HEAD =           0.0000         CONSTANT HEAD =           0.0000
               WELLS =           0.0000                 WELLS =           0.0000
       RIVER LEAKAGE =    74891896.0000         RIVER LEAKAGE =       3.5031E-02
                  ET =           0.0000                    ET =           0.0000
     HEAD DEP BOUNDS =           0.0000       HEAD DEP BOUNDS =           0.0000
            RECHARGE =   286055744.0000              RECHARGE =           0.1334
          SWIADDTOCH =           0.0000            SWIADDTOCH =           0.0000

            TOTAL IN =   360947648.0000              TOTAL IN =           0.1684

          OUT:                                     OUT:
          ----                                     ----
             STORAGE =           0.0000               STORAGE =           0.0000
       CONSTANT HEAD =           0.0000         CONSTANT HEAD =           0.0000
               WELLS =           0.0000                 WELLS =           0.0000
       RIVER LEAKAGE =    14779409.0000         RIVER LEAKAGE =       6.7038E-03
                  ET =   113151688.0000                    ET =       5.1705E-02
     HEAD DEP BOUNDS =   233027824.0000       HEAD DEP BOUNDS =           0.1100
            RECHARGE =           0.0000              RECHARGE =           0.0000
          SWIADDTOCH =           0.0000            SWIADDTOCH =           0.0000

           TOTAL OUT =   360958912.0000             TOTAL OUT =           0.1684

            IN - OUT =      -11264.0000              IN - OUT =      -1.6689E-06

 PERCENT DISCREPANCY =          -0.00     PERCENT DISCREPANCY =          -0.00






         TIME SUMMARY AT END OF TIME STEP   34 IN STRESS PERIOD    1
                    SECONDS     MINUTES      HOURS       DAYS        YEARS
                    -----------------------------------------------------------
   TIME STEP LENGTH 6.30720E+07 1.05120E+06  17520.      730.00      1.9986    
 STRESS PERIOD TIME 2.14445E+09 3.57408E+07 5.95680E+05  24820.      67.953    
         TOTAL TIME 2.14445E+09 3.57408E+07 5.95680E+05  24820.      67.953    
1
 
 SOLVING FOR HEAD 
     2 CALLS TO PCG ROUTINE FOR TIME STEP  35 IN STRESS PERIOD    1
    16 TOTAL ITERATIONS

 MAXIMUM HEAD CHANGE FOR EACH ITERATION (1 INDICATES THE FIRST INNER ITERATION):

    HEAD CHANGE    HEAD CHANGE    HEAD CHANGE    HEAD CHANGE    HEAD CHANGE 
   LAYER,ROW,COL  LAYER,ROW,COL  LAYER,ROW,COL  LAYER,ROW,COL  LAYER,ROW,COL
 ---------------------------------------------------------------------------
  1  0.1520      0 -0.3634E-01  0 -0.3592E-01  0  0.4657E-01  0 -0.7163E-01
   (  1, 24,  3)  (  2, 22, 49)  (  2, 25,  3)  (  2, 59, 34)  (  2, 59, 34)
  0  0.1142      0 -0.8717E-01  0  0.3077E-01  0 -0.7980E-02  0 -0.2612E-02
   (  2, 59, 34)  (  2, 59, 34)  (  2, 58, 31)  (  2, 58, 31)  (  2, 58, 31)
  0  0.4211E-02  0 -0.1589E-02  0  0.7067E-02  0 -0.7096E-02  0  0.7671E-03
   (  2, 58, 31)  (  2, 58, 31)  (  2, 59, 34)  (  2, 59, 34)  (  2, 58, 31)
  1  0.2207E-03
   (  2, 19, 52)

 MAXIMUM RESIDUAL FOR EACH ITERATION (1 INDICATES THE FIRST INNER ITERATION):

    RESIDUAL       RESIDUAL       RESIDUAL       RESIDUAL       RESIDUAL    
   LAYER,ROW,COL  LAYER,ROW,COL  LAYER,ROW,COL  LAYER,ROW,COL  LAYER,ROW,COL
 ---------------------------------------------------------------------------
  1  0.3970E-03  0  0.3606E-03  0  0.7692E-04  0  0.6756E-04  0 -0.5940E-04
   (  2, 24,  3)  (  2, 24,  3)  (  2, 24,  3)  (  2, 24,  3)  (  2, 23,  2)
  0 -0.3908E-04  0 -0.2649E-04  0 -0.1895E-04  0  0.1023E-04  0  0.7088E-05
   (  2, 23,  2)  (  2, 22,  3)  (  2, 22,  3)  (  1, 25,  3)  (  1, 25,  3)
  0  0.5065E-05  0  0.2906E-05  0  0.2042E-05  0  0.1431E-05  0 -0.7647E-06
   (  1, 25,  3)  (  1, 25,  3)  (  1, 25,  3)  (  1, 25,  3)  (  2, 21,  4)
  1 -0.7517E-06
   (  2, 21,  4)



 OUTPUT CONTROL FOR STRESS PERIOD    1   TIME STEP   35
    SAVE HEAD FOR ALL LAYERS
    SAVE DRAWDOWN FOR ALL LAYERS
    SAVE BUDGET
    PRINT BUDGET
 UBDSV2 SAVING "   CONSTANT HEAD" ON UNIT   9 AT TIME STEP 35, STRESS PERIOD   1
 UBDSV1 SAVING "FLOW RIGHT FACE " ON UNIT   9 AT TIME STEP 35, STRESS PERIOD   1
 UBDSV1 SAVING "FLOW FRONT FACE " ON UNIT   9 AT TIME STEP 35, STRESS PERIOD   1
 UBDSV1 SAVING "FLOW LOWER FACE " ON UNIT   9 AT TIME STEP 35, STRESS PERIOD   1
 UBDSV4 SAVING "           WELLS" ON UNIT   9 AT TIME STEP 35, STRESS PERIOD   1
 UBDSV4 SAVING "   RIVER LEAKAGE" ON UNIT   9 AT TIME STEP 35, STRESS PERIOD   1
 UBDSV3 SAVING "              ET" ON UNIT   9 AT TIME STEP 35, STRESS PERIOD   1
 UBDSV4 SAVING " HEAD DEP BOUNDS" ON UNIT   9 AT TIME STEP 35, STRESS PERIOD   1
 UBDSV3 SAVING "        RECHARGE" ON UNIT   9 AT TIME STEP 35, STRESS PERIOD   1
 SOLVING FOR ZETA FOR LAYER     1 ZONE     2
     2 CALLS TO PCG ROUTINE FOR TIME STEP  35 IN STRESS PERIOD    1
     5 TOTAL ITERATIONS

 MAXIMUM HEAD CHANGE FOR EACH ITERATION (1 INDICATES THE FIRST INNER ITERATION):

    HEAD CHANGE    HEAD CHANGE    HEAD CHANGE    HEAD CHANGE    HEAD CHANGE 
   LAYER,ROW,COL  LAYER,ROW,COL  LAYER,ROW,COL  LAYER,ROW,COL  LAYER,ROW,COL
 ---------------------------------------------------------------------------
  1  -5.336      0 -0.4209      0 -0.1624E-01  0  0.6748E-03  1  0.1044E-04
   (  1, 24,  3)  (  1, 23,  4)  (  1, 24,  3)  (  1, 22,  4)  (  1, 24,  4)

 MAXIMUM RESIDUAL FOR EACH ITERATION (1 INDICATES THE FIRST INNER ITERATION):

    RESIDUAL       RESIDUAL       RESIDUAL       RESIDUAL       RESIDUAL    
   LAYER,ROW,COL  LAYER,ROW,COL  LAYER,ROW,COL  LAYER,ROW,COL  LAYER,ROW,COL
 ---------------------------------------------------------------------------
  1  0.3999E-04  0  0.1947E-05  0 -0.7897E-07  0 -0.1874E-08  1 -0.4382E-10
   (  1, 23,  4)  (  1, 24,  3)  (  1, 22,  4)  (  1, 23,  3)  (  1, 22,  4)


 SOLVING FOR ZETA FOR LAYER     2 ZONE     2
     2 CALLS TO PCG ROUTINE FOR TIME STEP  35 IN STRESS PERIOD    1
     4 TOTAL ITERATIONS

 MAXIMUM HEAD CHANGE FOR EACH ITERATION (1 INDICATES THE FIRST INNER ITERATION):

    HEAD CHANGE    HEAD CHANGE    HEAD CHANGE    HEAD CHANGE    HEAD CHANGE 
   LAYER,ROW,COL  LAYER,ROW,COL  LAYER,ROW,COL  LAYER,ROW,COL  LAYER,ROW,COL
 ---------------------------------------------------------------------------
  1 -0.3390      0 -0.1464E-01  0 -0.7830E-03  1  0.8291E-05
   (  1,  5, 10)  (  1, 33,  5)  (  1, 34,  4)  (  1,  6,  9)

 MAXIMUM RESIDUAL FOR EACH ITERATION (1 INDICATES THE FIRST INNER ITERATION):

    RESIDUAL       RESIDUAL       RESIDUAL       RESIDUAL       RESIDUAL    
   LAYER,ROW,COL  LAYER,ROW,COL  LAYER,ROW,COL  LAYER,ROW,COL  LAYER,ROW,COL
 ---------------------------------------------------------------------------
  1  0.1381E-05  0  0.9216E-07  0 -0.6551E-09  1  0.6736E-11
   (  1, 33,  5)  (  1, 34,  4)  (  1,  6,  9)  (  1, 34,  4)


 UBUDSV SAVING "      ZETASRF  1" ON UNIT170 AT TIME STEP 35, STRESS PERIOD    1


                      VOLUMETRIC SWI ZONE BUDGET FOR ENTIRE MODEL
                     AT END OF TIME STEP   35 IN STRESS PERIOD   1
                                      ZONE     1
  -----------------------------------------------------------------------------------

        CUMULATIVE VOLUMES      L**3       RATES FOR THIS TIME STEP      L**3/T
        ------------------                 ------------------------

              IN:                                      IN:
              ---                                      ---
             BOUNDARIES =   354166656.0000            BOUNDARIES =           0.1607
          CONSTANT HEAD =           0.0000         CONSTANT HEAD =           0.0000
            ZONE CHANGE =    82519112.0000           ZONE CHANGE =       5.3839E-04
       ZONE CHG TIP/TOE =     3719528.7500      ZONE CHG TIP/TOE =           0.0000
            ZONE MIXING =           0.0000           ZONE MIXING =           0.0000

               TOTAL IN =   440405312.0000              TOTAL IN =           0.1613

             OUT:                                     OUT:
             ----                                     ----
             BOUNDARIES =   326874624.0000            BOUNDARIES =           0.1599
          CONSTANT HEAD =           0.0000         CONSTANT HEAD =           0.0000
            ZONE CHANGE =    22162190.0000           ZONE CHANGE =       1.3232E-03
       ZONE CHG TIP/TOE =     3373733.7500      ZONE CHG TIP/TOE =           0.0000
            ZONE MIXING =           0.0000           ZONE MIXING =           0.0000

              TOTAL OUT =   352410560.0000             TOTAL OUT =           0.1612

               IN - OUT =    87994752.0000              IN - OUT =       4.6656E-05

    PERCENT DISCREPANCY =          22.20     PERCENT DISCREPANCY =           0.03



                      VOLUMETRIC SWI ZONE BUDGET FOR ENTIRE MODEL
                     AT END OF TIME STEP   35 IN STRESS PERIOD   1
                                      ZONE     2
  -----------------------------------------------------------------------------------

        CUMULATIVE VOLUMES      L**3       RATES FOR THIS TIME STEP      L**3/T
        ------------------                 ------------------------

              IN:                                      IN:
              ---                                      ---
             BOUNDARIES =           0.0000            BOUNDARIES =           0.0000
          CONSTANT HEAD =           0.0000         CONSTANT HEAD =           0.0000
            ZONE CHANGE =    18974788.0000           ZONE CHANGE =       1.3232E-03
       ZONE CHG TIP/TOE =     3373733.7500      ZONE CHG TIP/TOE =           0.0000
            ZONE MIXING =           0.0000           ZONE MIXING =           0.0000

               TOTAL IN =    22348522.0000              TOTAL IN =       1.3232E-03

             OUT:                                     OUT:
             ----                                     ----
             BOUNDARIES =    27303724.0000            BOUNDARIES =       8.3433E-04
          CONSTANT HEAD =           0.0000         CONSTANT HEAD =           0.0000
            ZONE CHANGE =     1921178.0000           ZONE CHANGE =       4.8912E-04
       ZONE CHG TIP/TOE =     1408026.1250      ZONE CHG TIP/TOE =           0.0000
            ZONE MIXING =           0.0000           ZONE MIXING =           0.0000

              TOTAL OUT =    30632928.0000             TOTAL OUT =       1.3234E-03

               IN - OUT =    -8284406.0000              IN - OUT =      -2.4028E-07

    PERCENT DISCREPANCY =         -31.27     PERCENT DISCREPANCY =          -0.02


 HEAD WILL BE SAVED ON UNIT   37 AT END OF TIME STEP   35, STRESS PERIOD    1

 DRAWDOWN WILL BE SAVED ON UNIT   38 AT END OF TIME STEP   35, STRESS PERIOD    1
1
  VOLUMETRIC BUDGET FOR ENTIRE MODEL AT END OF TIME STEP   35, STRESS PERIOD   1
  ------------------------------------------------------------------------------

     CUMULATIVE VOLUMES      L**3       RATES FOR THIS TIME STEP      L**3/T
     ------------------                 ------------------------

           IN:                                      IN:
           ---                                      ---
             STORAGE =           0.0000               STORAGE =           0.0000
       CONSTANT HEAD =           0.0000         CONSTANT HEAD =           0.0000
               WELLS =           0.0000                 WELLS =           0.0000
       RIVER LEAKAGE =    77101536.0000         RIVER LEAKAGE =       3.5034E-02
                  ET =           0.0000                    ET =           0.0000
     HEAD DEP BOUNDS =           0.0000       HEAD DEP BOUNDS =           0.0000
            RECHARGE =   294469152.0000              RECHARGE =           0.1334
          SWIADDTOCH =           0.0000            SWIADDTOCH =           0.0000

            TOTAL IN =   371570688.0000              TOTAL IN =           0.1684

          OUT:                                     OUT:
          ----                                     ----
             STORAGE =           0.0000               STORAGE =           0.0000
       CONSTANT HEAD =           0.0000         CONSTANT HEAD =           0.0000
               WELLS =           0.0000                 WELLS =           0.0000
       RIVER LEAKAGE =    15201820.0000         RIVER LEAKAGE =       6.6973E-03
                  ET =   116410448.0000                    ET =       5.1667E-02
     HEAD DEP BOUNDS =   239969872.0000       HEAD DEP BOUNDS =           0.1101
            RECHARGE =           0.0000              RECHARGE =           0.0000
          SWIADDTOCH =           0.0000            SWIADDTOCH =           0.0000

           TOTAL OUT =   371582144.0000             TOTAL OUT =           0.1684

            IN - OUT =      -11456.0000              IN - OUT =      -2.8312E-06

 PERCENT DISCREPANCY =          -0.00     PERCENT DISCREPANCY =          -0.00






         TIME SUMMARY AT END OF TIME STEP   35 IN STRESS PERIOD    1
                    SECONDS     MINUTES      HOURS       DAYS        YEARS
                    -----------------------------------------------------------
   TIME STEP LENGTH 6.30720E+07 1.05120E+06  17520.      730.00      1.9986    
 STRESS PERIOD TIME 2.20752E+09 3.67920E+07 6.13200E+05  25550.      69.952    
         TOTAL TIME 2.20752E+09 3.67920E+07 6.13200E+05  25550.      69.952    
1
 
 SOLVING FOR HEAD 
     2 CALLS TO PCG ROUTINE FOR TIME STEP  36 IN STRESS PERIOD    1
    18 TOTAL ITERATIONS

 MAXIMUM HEAD CHANGE FOR EACH ITERATION (1 INDICATES THE FIRST INNER ITERATION):

    HEAD CHANGE    HEAD CHANGE    HEAD CHANGE    HEAD CHANGE    HEAD CHANGE 
   LAYER,ROW,COL  LAYER,ROW,COL  LAYER,ROW,COL  LAYER,ROW,COL  LAYER,ROW,COL
 ---------------------------------------------------------------------------
  1  0.1064      0 -0.3362E-01  0  0.1496      0 -0.1324      0 -0.1135E-01
   (  1, 24,  3)  (  2, 59, 34)  (  2, 59, 34)  (  2, 59, 34)  (  2, 58, 31)
  0 -0.6676E-02  0 -0.6909E-02  0  0.3047E-02  0 -0.4901E-02  0 -0.2256E-02
   (  2, 20, 52)  (  2, 22, 49)  (  2,  8, 31)  (  2, 58, 31)  (  2,  3, 32)
  0  0.1250E-02  0 -0.1751E-02  0  0.3661E-02  0 -0.3946E-02  0 -0.1196E-02
   (  2,  3, 32)  (  2, 59, 34)  (  2, 59, 34)  (  2, 59, 34)  (  2, 58, 31)
  0  0.1047E-02  0 -0.3666E-03  1  0.1982E-03
   (  2, 58, 31)  (  2, 58, 31)  (  2, 58, 31)

 MAXIMUM RESIDUAL FOR EACH ITERATION (1 INDICATES THE FIRST INNER ITERATION):

    RESIDUAL       RESIDUAL       RESIDUAL       RESIDUAL       RESIDUAL    
   LAYER,ROW,COL  LAYER,ROW,COL  LAYER,ROW,COL  LAYER,ROW,COL  LAYER,ROW,COL
 ---------------------------------------------------------------------------
  1 -0.2117E-03  0 -0.2017E-03  0 -0.4786E-04  0 -0.4514E-04  0 -0.3691E-04
   (  2, 23,  2)  (  2, 23,  2)  (  2, 22,  3)  (  2, 22,  3)  (  2, 22,  3)
  0 -0.2374E-04  0 -0.1329E-04  0 -0.7583E-05  0 -0.5673E-05  0 -0.3666E-05
   (  2, 22,  3)  (  2, 22,  3)  (  1, 23,  4)  (  1, 23,  4)  (  1, 23,  4)
  0 -0.2918E-05  0 -0.2517E-05  0 -0.1564E-05  0 -0.1424E-05  0 -0.8258E-06
   (  1, 23,  4)  (  1, 23,  4)  (  1, 23,  4)  (  1, 23,  4)  (  2, 21,  4)
  0 -0.5571E-06  0 -0.3594E-06  1 -0.2914E-06
   (  2, 21,  4)  (  2, 21,  4)  (  2, 21,  4)



 OUTPUT CONTROL FOR STRESS PERIOD    1   TIME STEP   36
    SAVE HEAD FOR ALL LAYERS
    SAVE DRAWDOWN FOR ALL LAYERS
    SAVE BUDGET
    PRINT BUDGET
 UBDSV2 SAVING "   CONSTANT HEAD" ON UNIT   9 AT TIME STEP 36, STRESS PERIOD   1
 UBDSV1 SAVING "FLOW RIGHT FACE " ON UNIT   9 AT TIME STEP 36, STRESS PERIOD   1
 UBDSV1 SAVING "FLOW FRONT FACE " ON UNIT   9 AT TIME STEP 36, STRESS PERIOD   1
 UBDSV1 SAVING "FLOW LOWER FACE " ON UNIT   9 AT TIME STEP 36, STRESS PERIOD   1
 UBDSV4 SAVING "           WELLS" ON UNIT   9 AT TIME STEP 36, STRESS PERIOD   1
 UBDSV4 SAVING "   RIVER LEAKAGE" ON UNIT   9 AT TIME STEP 36, STRESS PERIOD   1
 UBDSV3 SAVING "              ET" ON UNIT   9 AT TIME STEP 36, STRESS PERIOD   1
 UBDSV4 SAVING " HEAD DEP BOUNDS" ON UNIT   9 AT TIME STEP 36, STRESS PERIOD   1
 UBDSV3 SAVING "        RECHARGE" ON UNIT   9 AT TIME STEP 36, STRESS PERIOD   1
 SOLVING FOR ZETA FOR LAYER     1 ZONE     2
     2 CALLS TO PCG ROUTINE FOR TIME STEP  36 IN STRESS PERIOD    1
     5 TOTAL ITERATIONS

 MAXIMUM HEAD CHANGE FOR EACH ITERATION (1 INDICATES THE FIRST INNER ITERATION):

    HEAD CHANGE    HEAD CHANGE    HEAD CHANGE    HEAD CHANGE    HEAD CHANGE 
   LAYER,ROW,COL  LAYER,ROW,COL  LAYER,ROW,COL  LAYER,ROW,COL  LAYER,ROW,COL
 ---------------------------------------------------------------------------
  1  -3.893      0 -0.2838      0 -0.9334E-02  0  0.3360E-03  1  0.5971E-05
   (  1, 23,  3)  (  1, 23,  4)  (  1, 24,  3)  (  1, 22,  4)  (  1, 24,  4)

 MAXIMUM RESIDUAL FOR EACH ITERATION (1 INDICATES THE FIRST INNER ITERATION):

    RESIDUAL       RESIDUAL       RESIDUAL       RESIDUAL       RESIDUAL    
   LAYER,ROW,COL  LAYER,ROW,COL  LAYER,ROW,COL  LAYER,ROW,COL  LAYER,ROW,COL
 ---------------------------------------------------------------------------
  1  0.2716E-04  0  0.1096E-05  0 -0.4176E-07  0 -0.7311E-09  1  0.2004E-10
   (  1, 23,  4)  (  1, 24,  3)  (  1, 22,  4)  (  1, 24,  4)  (  1, 22,  3)


 SOLVING FOR ZETA FOR LAYER     2 ZONE     2
     2 CALLS TO PCG ROUTINE FOR TIME STEP  36 IN STRESS PERIOD    1
     5 TOTAL ITERATIONS

 MAXIMUM HEAD CHANGE FOR EACH ITERATION (1 INDICATES THE FIRST INNER ITERATION):

    HEAD CHANGE    HEAD CHANGE    HEAD CHANGE    HEAD CHANGE    HEAD CHANGE 
   LAYER,ROW,COL  LAYER,ROW,COL  LAYER,ROW,COL  LAYER,ROW,COL  LAYER,ROW,COL
 ---------------------------------------------------------------------------
  1 -0.3433      0 -0.1744E-01  0 -0.1087E-02  0  0.7733E-05  1  0.9955E-08
   (  1,  5, 10)  (  1, 33,  5)  (  1, 34,  4)  (  1,  6,  9)  (  1,  5, 10)

 MAXIMUM RESIDUAL FOR EACH ITERATION (1 INDICATES THE FIRST INNER ITERATION):

    RESIDUAL       RESIDUAL       RESIDUAL       RESIDUAL       RESIDUAL    
   LAYER,ROW,COL  LAYER,ROW,COL  LAYER,ROW,COL  LAYER,ROW,COL  LAYER,ROW,COL
 ---------------------------------------------------------------------------
  1  0.1669E-05  0  0.1261E-06  0 -0.6108E-09  0 -0.1284E-11  1 -0.1338E-13
   (  1, 33,  5)  (  1, 34,  4)  (  1,  6,  9)  (  1,  5, 10)  (  1, 34,  4)


 UBUDSV SAVING "      ZETASRF  1" ON UNIT170 AT TIME STEP 36, STRESS PERIOD    1


                      VOLUMETRIC SWI ZONE BUDGET FOR ENTIRE MODEL
                     AT END OF TIME STEP   36 IN STRESS PERIOD   1
                                      ZONE     1
  -----------------------------------------------------------------------------------

        CUMULATIVE VOLUMES      L**3       RATES FOR THIS TIME STEP      L**3/T
        ------------------                 ------------------------

              IN:                                      IN:
              ---                                      ---
             BOUNDARIES =   364304192.0000            BOUNDARIES =           0.1607
          CONSTANT HEAD =           0.0000         CONSTANT HEAD =           0.0000
            ZONE CHANGE =    82539280.0000           ZONE CHANGE =       3.1981E-04
       ZONE CHG TIP/TOE =     3719528.7500      ZONE CHG TIP/TOE =           0.0000
            ZONE MIXING =           0.0000           ZONE MIXING =           0.0000

               TOTAL IN =   450563008.0000              TOTAL IN =           0.1610

             OUT:                                     OUT:
             ----                                     ----
             BOUNDARIES =   336963904.0000            BOUNDARIES =           0.1600
          CONSTANT HEAD =           0.0000         CONSTANT HEAD =           0.0000
            ZONE CHANGE =    22229292.0000           ZONE CHANGE =       1.0639E-03
       ZONE CHG TIP/TOE =     3373733.7500      ZONE CHG TIP/TOE =           0.0000
            ZONE MIXING =           0.0000           ZONE MIXING =           0.0000

              TOTAL OUT =   362566944.0000             TOTAL OUT =           0.1610

               IN - OUT =    87996064.0000              IN - OUT =       2.0608E-05

    PERCENT DISCREPANCY =          21.64     PERCENT DISCREPANCY =           0.01



                      VOLUMETRIC SWI ZONE BUDGET FOR ENTIRE MODEL
                     AT END OF TIME STEP   36 IN STRESS PERIOD   1
                                      ZONE     2
  -----------------------------------------------------------------------------------

        CUMULATIVE VOLUMES      L**3       RATES FOR THIS TIME STEP      L**3/T
        ------------------                 ------------------------

              IN:                                      IN:
              ---                                      ---
             BOUNDARIES =           0.0000            BOUNDARIES =           0.0000
          CONSTANT HEAD =           0.0000         CONSTANT HEAD =           0.0000
            ZONE CHANGE =    19041886.0000           ZONE CHANGE =       1.0638E-03
       ZONE CHG TIP/TOE =     3373733.7500      ZONE CHG TIP/TOE =           0.0000
            ZONE MIXING =           0.0000           ZONE MIXING =           0.0000

               TOTAL IN =    22415620.0000              TOTAL IN =       1.0638E-03

             OUT:                                     OUT:
             ----                                     ----
             BOUNDARIES =    27352028.0000            BOUNDARIES =       7.6585E-04
          CONSTANT HEAD =           0.0000         CONSTANT HEAD =           0.0000
            ZONE CHANGE =     1939962.6250           ZONE CHANGE =       2.9783E-04
       ZONE CHG TIP/TOE =     1408026.1250      ZONE CHG TIP/TOE =           0.0000
            ZONE MIXING =           0.0000           ZONE MIXING =           0.0000

              TOTAL OUT =    30700016.0000             TOTAL OUT =       1.0637E-03

               IN - OUT =    -8284396.0000              IN - OUT =       1.7066E-07

    PERCENT DISCREPANCY =         -31.19     PERCENT DISCREPANCY =           0.02


 HEAD WILL BE SAVED ON UNIT   37 AT END OF TIME STEP   36, STRESS PERIOD    1

 DRAWDOWN WILL BE SAVED ON UNIT   38 AT END OF TIME STEP   36, STRESS PERIOD    1
1
  VOLUMETRIC BUDGET FOR ENTIRE MODEL AT END OF TIME STEP   36, STRESS PERIOD   1
  ------------------------------------------------------------------------------

     CUMULATIVE VOLUMES      L**3       RATES FOR THIS TIME STEP      L**3/T
     ------------------                 ------------------------

           IN:                                      IN:
           ---                                      ---
             STORAGE =           0.0000               STORAGE =           0.0000
       CONSTANT HEAD =           0.0000         CONSTANT HEAD =           0.0000
               WELLS =           0.0000                 WELLS =           0.0000
       RIVER LEAKAGE =    79311248.0000         RIVER LEAKAGE =       3.5035E-02
                  ET =           0.0000                    ET =           0.0000
     HEAD DEP BOUNDS =           0.0000       HEAD DEP BOUNDS =           0.0000
            RECHARGE =   302882560.0000              RECHARGE =           0.1334
          SWIADDTOCH =           0.0000            SWIADDTOCH =           0.0000

            TOTAL IN =   382193792.0000              TOTAL IN =           0.1684

          OUT:                                     OUT:
          ----                                     ----
             STORAGE =           0.0000               STORAGE =           0.0000
       CONSTANT HEAD =           0.0000         CONSTANT HEAD =           0.0000
               WELLS =           0.0000                 WELLS =           0.0000
       RIVER LEAKAGE =    15624069.0000         RIVER LEAKAGE =       6.6947E-03
                  ET =   119668520.0000                    ET =       5.1656E-02
     HEAD DEP BOUNDS =   246912736.0000       HEAD DEP BOUNDS =           0.1101
            RECHARGE =           0.0000              RECHARGE =           0.0000
          SWIADDTOCH =           0.0000            SWIADDTOCH =           0.0000

           TOTAL OUT =   382205312.0000             TOTAL OUT =           0.1684

            IN - OUT =      -11520.0000              IN - OUT =      -1.1474E-06

 PERCENT DISCREPANCY =          -0.00     PERCENT DISCREPANCY =          -0.00






         TIME SUMMARY AT END OF TIME STEP   36 IN STRESS PERIOD    1
                    SECONDS     MINUTES      HOURS       DAYS        YEARS
                    -----------------------------------------------------------
   TIME STEP LENGTH 6.30720E+07 1.05120E+06  17520.      730.00      1.9986    
 STRESS PERIOD TIME 2.27059E+09 3.78432E+07 6.30720E+05  26280.      71.951    
         TOTAL TIME 2.27059E+09 3.78432E+07 6.30720E+05  26280.      71.951    
1
 
 SOLVING FOR HEAD 
     3 CALLS TO PCG ROUTINE FOR TIME STEP  37 IN STRESS PERIOD    1
    16 TOTAL ITERATIONS

 MAXIMUM HEAD CHANGE FOR EACH ITERATION (1 INDICATES THE FIRST INNER ITERATION):

    HEAD CHANGE    HEAD CHANGE    HEAD CHANGE    HEAD CHANGE    HEAD CHANGE 
   LAYER,ROW,COL  LAYER,ROW,COL  LAYER,ROW,COL  LAYER,ROW,COL  LAYER,ROW,COL
 ---------------------------------------------------------------------------
  1  0.7185E-01  0  0.2468E-01  0 -0.1169E-01  0 -0.3650E-01  0  0.4217E-01
   (  1, 24,  3)  (  2, 23,  2)  (  2, 22, 49)  (  2, 59, 34)  (  2, 59, 34)
  0 -0.2450E-01  0  0.1604E-01  0  0.3404E-02  0 -0.2340E-02  0  0.9465E-03
   (  2, 59, 34)  (  2, 58, 31)  (  2,  3, 32)  (  2, 58, 31)  (  2, 20, 52)
  1  0.1478E-02  0 -0.2329E-02  0  0.3282E-02  0 -0.1181E-02  0  0.3104E-03
   (  2, 58, 31)  (  2, 59, 34)  (  2, 59, 34)  (  2, 59, 34)  (  2,  3, 32)
  1  0.1558E-03
   (  2, 19, 52)

 MAXIMUM RESIDUAL FOR EACH ITERATION (1 INDICATES THE FIRST INNER ITERATION):

    RESIDUAL       RESIDUAL       RESIDUAL       RESIDUAL       RESIDUAL    
   LAYER,ROW,COL  LAYER,ROW,COL  LAYER,ROW,COL  LAYER,ROW,COL  LAYER,ROW,COL
 ---------------------------------------------------------------------------
  1 -0.1585E-03  0 -0.3925E-04  0 -0.3394E-04  0 -0.3166E-04  0 -0.2325E-04
   (  2, 23,  2)  (  2, 22,  3)  (  2, 22,  3)  (  2, 22,  3)  (  2, 22,  3)
  0 -0.1977E-04  0  0.7087E-05  0  0.5755E-05  0 -0.4608E-05  0 -0.2688E-05
   (  2, 22,  3)  (  2, 23,  4)  (  2, 23,  4)  (  1, 23,  4)  (  1, 23,  4)
  1 -0.2359E-05  0 -0.1641E-05  0 -0.1500E-05  0 -0.1063E-05  0 -0.6692E-06
   (  1, 23,  4)  (  1, 23,  4)  (  1, 23,  4)  (  1, 23,  4)  (  1, 22,  4)
  1 -0.6595E-06
   (  1, 22,  4)



 OUTPUT CONTROL FOR STRESS PERIOD    1   TIME STEP   37
    SAVE HEAD FOR ALL LAYERS
    SAVE DRAWDOWN FOR ALL LAYERS
    SAVE BUDGET
    PRINT BUDGET
 UBDSV2 SAVING "   CONSTANT HEAD" ON UNIT   9 AT TIME STEP 37, STRESS PERIOD   1
 UBDSV1 SAVING "FLOW RIGHT FACE " ON UNIT   9 AT TIME STEP 37, STRESS PERIOD   1
 UBDSV1 SAVING "FLOW FRONT FACE " ON UNIT   9 AT TIME STEP 37, STRESS PERIOD   1
 UBDSV1 SAVING "FLOW LOWER FACE " ON UNIT   9 AT TIME STEP 37, STRESS PERIOD   1
 UBDSV4 SAVING "           WELLS" ON UNIT   9 AT TIME STEP 37, STRESS PERIOD   1
 UBDSV4 SAVING "   RIVER LEAKAGE" ON UNIT   9 AT TIME STEP 37, STRESS PERIOD   1
 UBDSV3 SAVING "              ET" ON UNIT   9 AT TIME STEP 37, STRESS PERIOD   1
 UBDSV4 SAVING " HEAD DEP BOUNDS" ON UNIT   9 AT TIME STEP 37, STRESS PERIOD   1
 UBDSV3 SAVING "        RECHARGE" ON UNIT   9 AT TIME STEP 37, STRESS PERIOD   1
 SOLVING FOR ZETA FOR LAYER     1 ZONE     2
     2 CALLS TO PCG ROUTINE FOR TIME STEP  37 IN STRESS PERIOD    1
     5 TOTAL ITERATIONS

 MAXIMUM HEAD CHANGE FOR EACH ITERATION (1 INDICATES THE FIRST INNER ITERATION):

    HEAD CHANGE    HEAD CHANGE    HEAD CHANGE    HEAD CHANGE    HEAD CHANGE 
   LAYER,ROW,COL  LAYER,ROW,COL  LAYER,ROW,COL  LAYER,ROW,COL  LAYER,ROW,COL
 ---------------------------------------------------------------------------
  1  -2.835      0 -0.1839      0 -0.5063E-02  0 -0.1636E-03  1  0.3034E-05
   (  1, 23,  3)  (  1, 23,  4)  (  1, 24,  3)  (  1, 23,  4)  (  1, 24,  4)

 MAXIMUM RESIDUAL FOR EACH ITERATION (1 INDICATES THE FIRST INNER ITERATION):

    RESIDUAL       RESIDUAL       RESIDUAL       RESIDUAL       RESIDUAL    
   LAYER,ROW,COL  LAYER,ROW,COL  LAYER,ROW,COL  LAYER,ROW,COL  LAYER,ROW,COL
 ---------------------------------------------------------------------------
  1  0.1748E-04  0  0.5780E-06  0 -0.2091E-07  0 -0.3669E-09  1  0.9669E-11
   (  1, 23,  4)  (  1, 24,  3)  (  1, 22,  4)  (  1, 24,  4)  (  1, 22,  3)


 SOLVING FOR ZETA FOR LAYER     2 ZONE     2
     2 CALLS TO PCG ROUTINE FOR TIME STEP  37 IN STRESS PERIOD    1
     5 TOTAL ITERATIONS

 MAXIMUM HEAD CHANGE FOR EACH ITERATION (1 INDICATES THE FIRST INNER ITERATION):

    HEAD CHANGE    HEAD CHANGE    HEAD CHANGE    HEAD CHANGE    HEAD CHANGE 
   LAYER,ROW,COL  LAYER,ROW,COL  LAYER,ROW,COL  LAYER,ROW,COL  LAYER,ROW,COL
 ---------------------------------------------------------------------------
  1 -0.3455      0 -0.1832E-01  0 -0.1166E-02  0  0.7040E-05  1  0.1527E-07
   (  1,  5, 10)  (  1, 33,  5)  (  1, 34,  4)  (  1,  6,  9)  (  1,  5, 10)

 MAXIMUM RESIDUAL FOR EACH ITERATION (1 INDICATES THE FIRST INNER ITERATION):

    RESIDUAL       RESIDUAL       RESIDUAL       RESIDUAL       RESIDUAL    
   LAYER,ROW,COL  LAYER,ROW,COL  LAYER,ROW,COL  LAYER,ROW,COL  LAYER,ROW,COL
 ---------------------------------------------------------------------------
  1  0.1760E-05  0  0.1345E-06  0 -0.5561E-09  0 -0.1067E-11  1  0.4581E-13
   (  1, 33,  5)  (  1, 34,  4)  (  1,  6,  9)  (  1,  5, 10)  (  1, 33,  5)


 UBUDSV SAVING "      ZETASRF  1" ON UNIT170 AT TIME STEP 37, STRESS PERIOD    1


                      VOLUMETRIC SWI ZONE BUDGET FOR ENTIRE MODEL
                     AT END OF TIME STEP   37 IN STRESS PERIOD   1
                                      ZONE     1
  -----------------------------------------------------------------------------------

        CUMULATIVE VOLUMES      L**3       RATES FOR THIS TIME STEP      L**3/T
        ------------------                 ------------------------

              IN:                                      IN:
              ---                                      ---
             BOUNDARIES =   374441888.0000            BOUNDARIES =           0.1607
          CONSTANT HEAD =           0.0000         CONSTANT HEAD =           0.0000
            ZONE CHANGE =    82551920.0000           ZONE CHANGE =       2.0041E-04
       ZONE CHG TIP/TOE =     3720431.7500      ZONE CHG TIP/TOE =       1.4316E-05
            ZONE MIXING =           0.0000           ZONE MIXING =           0.0000

               TOTAL IN =   460714240.0000              TOTAL IN =           0.1609

             OUT:                                     OUT:
             ----                                     ----
             BOUNDARIES =   347057376.0000            BOUNDARIES =           0.1600
          CONSTANT HEAD =           0.0000         CONSTANT HEAD =           0.0000
            ZONE CHANGE =    22285188.0000           ZONE CHANGE =       8.8624E-04
       ZONE CHG TIP/TOE =     3373733.7500      ZONE CHG TIP/TOE =           0.0000
            ZONE MIXING =           0.0000           ZONE MIXING =           0.0000

              TOTAL OUT =   372716288.0000             TOTAL OUT =           0.1609

               IN - OUT =    87997952.0000              IN - OUT =       2.9579E-05

    PERCENT DISCREPANCY =          21.12     PERCENT DISCREPANCY =           0.02



                      VOLUMETRIC SWI ZONE BUDGET FOR ENTIRE MODEL
                     AT END OF TIME STEP   37 IN STRESS PERIOD   1
                                      ZONE     2
  -----------------------------------------------------------------------------------

        CUMULATIVE VOLUMES      L**3       RATES FOR THIS TIME STEP      L**3/T
        ------------------                 ------------------------

              IN:                                      IN:
              ---                                      ---
             BOUNDARIES =           0.0000            BOUNDARIES =           0.0000
          CONSTANT HEAD =           0.0000         CONSTANT HEAD =           0.0000
            ZONE CHANGE =    19096874.0000           ZONE CHANGE =       8.7182E-04
       ZONE CHG TIP/TOE =     3373733.7500      ZONE CHG TIP/TOE =           0.0000
            ZONE MIXING =           0.0000           ZONE MIXING =           0.0000

               TOTAL IN =    22470608.0000              TOTAL IN =       8.7182E-04

             OUT:                                     OUT:
             ----                                     ----
             BOUNDARIES =    27396314.0000            BOUNDARIES =       7.0216E-04
          CONSTANT HEAD =           0.0000         CONSTANT HEAD =           0.0000
            ZONE CHANGE =     1951607.7500           ZONE CHANGE =       1.8463E-04
       ZONE CHG TIP/TOE =     1408026.1250      ZONE CHG TIP/TOE =           0.0000
            ZONE MIXING =           0.0000           ZONE MIXING =           0.0000

              TOTAL OUT =    30755948.0000             TOTAL OUT =       8.8679E-04

               IN - OUT =    -8285340.0000              IN - OUT =      -1.4972E-05

    PERCENT DISCREPANCY =         -31.13     PERCENT DISCREPANCY =          -1.70


 HEAD WILL BE SAVED ON UNIT   37 AT END OF TIME STEP   37, STRESS PERIOD    1

 DRAWDOWN WILL BE SAVED ON UNIT   38 AT END OF TIME STEP   37, STRESS PERIOD    1
1
  VOLUMETRIC BUDGET FOR ENTIRE MODEL AT END OF TIME STEP   37, STRESS PERIOD   1
  ------------------------------------------------------------------------------

     CUMULATIVE VOLUMES      L**3       RATES FOR THIS TIME STEP      L**3/T
     ------------------                 ------------------------

           IN:                                      IN:
           ---                                      ---
             STORAGE =           0.0000               STORAGE =           0.0000
       CONSTANT HEAD =           0.0000         CONSTANT HEAD =           0.0000
               WELLS =           0.0000                 WELLS =           0.0000
       RIVER LEAKAGE =    81521032.0000         RIVER LEAKAGE =       3.5036E-02
                  ET =           0.0000                    ET =           0.0000
     HEAD DEP BOUNDS =           0.0000       HEAD DEP BOUNDS =           0.0000
            RECHARGE =   311295968.0000              RECHARGE =           0.1334
          SWIADDTOCH =           0.0000            SWIADDTOCH =           0.0000

            TOTAL IN =   392816992.0000              TOTAL IN =           0.1684

          OUT:                                     OUT:
          ----                                     ----
             STORAGE =           0.0000               STORAGE =           0.0000
       CONSTANT HEAD =           0.0000         CONSTANT HEAD =           0.0000
               WELLS =           0.0000                 WELLS =           0.0000
       RIVER LEAKAGE =    16046168.0000         RIVER LEAKAGE =       6.6923E-03
                  ET =   122925960.0000                    ET =       5.1646E-02
     HEAD DEP BOUNDS =   253856448.0000       HEAD DEP BOUNDS =           0.1101
            RECHARGE =           0.0000              RECHARGE =           0.0000
          SWIADDTOCH =           0.0000            SWIADDTOCH =           0.0000

           TOTAL OUT =   392828576.0000             TOTAL OUT =           0.1684

            IN - OUT =      -11584.0000              IN - OUT =      -1.0729E-06

 PERCENT DISCREPANCY =          -0.00     PERCENT DISCREPANCY =          -0.00






         TIME SUMMARY AT END OF TIME STEP   37 IN STRESS PERIOD    1
                    SECONDS     MINUTES      HOURS       DAYS        YEARS
                    -----------------------------------------------------------
   TIME STEP LENGTH 6.30720E+07 1.05120E+06  17520.      730.00      1.9986    
 STRESS PERIOD TIME 2.33366E+09 3.88944E+07 6.48240E+05  27010.      73.949    
         TOTAL TIME 2.33366E+09 3.88944E+07 6.48240E+05  27010.      73.949    
1
 
 SOLVING FOR HEAD 
     2 CALLS TO PCG ROUTINE FOR TIME STEP  38 IN STRESS PERIOD    1
    17 TOTAL ITERATIONS

 MAXIMUM HEAD CHANGE FOR EACH ITERATION (1 INDICATES THE FIRST INNER ITERATION):

    HEAD CHANGE    HEAD CHANGE    HEAD CHANGE    HEAD CHANGE    HEAD CHANGE 
   LAYER,ROW,COL  LAYER,ROW,COL  LAYER,ROW,COL  LAYER,ROW,COL  LAYER,ROW,COL
 ---------------------------------------------------------------------------
  1  0.4780E-01  0  0.9863E-02  0  0.4162E-01  0 -0.5889E-01  0  0.2587E-01
   (  1, 23,  3)  (  2, 19, 52)  (  2, 59, 34)  (  2, 59, 34)  (  2, 59, 34)
  0  0.4254E-02  0 -0.3232E-02  0 -0.5110E-02  0  0.2460E-02  0  0.4245E-02
   (  2, 58, 31)  (  2, 22, 49)  (  2,  3, 32)  (  2,  3, 32)  (  2, 58, 31)
  0 -0.2420E-02  0 -0.2565E-02  0  0.3114E-02  0 -0.1850E-02  0  0.1001E-02
   (  2, 58, 31)  (  2, 59, 34)  (  2, 59, 34)  (  2, 59, 34)  (  2, 59, 34)
  0 -0.3021E-03  1  0.1550E-03
   (  2, 58, 31)  (  2, 58, 31)

 MAXIMUM RESIDUAL FOR EACH ITERATION (1 INDICATES THE FIRST INNER ITERATION):

    RESIDUAL       RESIDUAL       RESIDUAL       RESIDUAL       RESIDUAL    
   LAYER,ROW,COL  LAYER,ROW,COL  LAYER,ROW,COL  LAYER,ROW,COL  LAYER,ROW,COL
 ---------------------------------------------------------------------------
  1 -0.1128E-03  0 -0.1075E-03  0 -0.2706E-04  0 -0.2578E-04  0 -0.2260E-04
   (  2, 23,  2)  (  2, 23,  2)  (  2, 22,  3)  (  2, 22,  3)  (  2, 22,  3)
  0 -0.1876E-04  0 -0.1264E-04  0 -0.6801E-05  0  0.4079E-05  0 -0.2860E-05
   (  2, 22,  3)  (  2, 22,  3)  (  2, 22,  3)  (  2, 23,  4)  (  1, 23,  4)
  0 -0.1784E-05  0 -0.1541E-05  0 -0.1082E-05  0 -0.9283E-06  0 -0.4240E-06
   (  1, 23,  4)  (  1, 23,  4)  (  1, 23,  4)  (  1, 23,  4)  (  2, 21,  4)
  0 -0.3339E-06  1 -0.2665E-06
   (  2, 21,  4)  (  2, 21,  4)



 OUTPUT CONTROL FOR STRESS PERIOD    1   TIME STEP   38
    SAVE HEAD FOR ALL LAYERS
    SAVE DRAWDOWN FOR ALL LAYERS
    SAVE BUDGET
    PRINT BUDGET
 UBDSV2 SAVING "   CONSTANT HEAD" ON UNIT   9 AT TIME STEP 38, STRESS PERIOD   1
 UBDSV1 SAVING "FLOW RIGHT FACE " ON UNIT   9 AT TIME STEP 38, STRESS PERIOD   1
 UBDSV1 SAVING "FLOW FRONT FACE " ON UNIT   9 AT TIME STEP 38, STRESS PERIOD   1
 UBDSV1 SAVING "FLOW LOWER FACE " ON UNIT   9 AT TIME STEP 38, STRESS PERIOD   1
 UBDSV4 SAVING "           WELLS" ON UNIT   9 AT TIME STEP 38, STRESS PERIOD   1
 UBDSV4 SAVING "   RIVER LEAKAGE" ON UNIT   9 AT TIME STEP 38, STRESS PERIOD   1
 UBDSV3 SAVING "              ET" ON UNIT   9 AT TIME STEP 38, STRESS PERIOD   1
 UBDSV4 SAVING " HEAD DEP BOUNDS" ON UNIT   9 AT TIME STEP 38, STRESS PERIOD   1
 UBDSV3 SAVING "        RECHARGE" ON UNIT   9 AT TIME STEP 38, STRESS PERIOD   1
 SOLVING FOR ZETA FOR LAYER     1 ZONE     2
     2 CALLS TO PCG ROUTINE FOR TIME STEP  38 IN STRESS PERIOD    1
     5 TOTAL ITERATIONS

 MAXIMUM HEAD CHANGE FOR EACH ITERATION (1 INDICATES THE FIRST INNER ITERATION):

    HEAD CHANGE    HEAD CHANGE    HEAD CHANGE    HEAD CHANGE    HEAD CHANGE 
   LAYER,ROW,COL  LAYER,ROW,COL  LAYER,ROW,COL  LAYER,ROW,COL  LAYER,ROW,COL
 ---------------------------------------------------------------------------
  1  -1.981      0 -0.1183      0 -0.2708E-02  0 -0.8397E-04  1  0.1452E-05
   (  1, 23,  3)  (  1, 23,  4)  (  1, 24,  3)  (  1, 23,  4)  (  1, 24,  4)

 MAXIMUM RESIDUAL FOR EACH ITERATION (1 INDICATES THE FIRST INNER ITERATION):

    RESIDUAL       RESIDUAL       RESIDUAL       RESIDUAL       RESIDUAL    
   LAYER,ROW,COL  LAYER,ROW,COL  LAYER,ROW,COL  LAYER,ROW,COL  LAYER,ROW,COL
 ---------------------------------------------------------------------------
  1  0.1118E-04  0  0.2998E-06  0 -0.1030E-07  0 -0.1778E-09  1  0.4275E-11
   (  1, 23,  4)  (  1, 24,  3)  (  1, 22,  4)  (  1, 24,  4)  (  1, 22,  3)


 SOLVING FOR ZETA FOR LAYER     2 ZONE     2
     2 CALLS TO PCG ROUTINE FOR TIME STEP  38 IN STRESS PERIOD    1
     5 TOTAL ITERATIONS

 MAXIMUM HEAD CHANGE FOR EACH ITERATION (1 INDICATES THE FIRST INNER ITERATION):

    HEAD CHANGE    HEAD CHANGE    HEAD CHANGE    HEAD CHANGE    HEAD CHANGE 
   LAYER,ROW,COL  LAYER,ROW,COL  LAYER,ROW,COL  LAYER,ROW,COL  LAYER,ROW,COL
 ---------------------------------------------------------------------------
  1 -0.4039      0 -0.1843E-01  0 -0.1176E-02  0 -0.4328E-10  1 -0.1191E-07
   (  1,  5,  9)  (  1, 33,  5)  (  1, 34,  4)  (  1,  5,  9)  (  1,  5,  9)

 MAXIMUM RESIDUAL FOR EACH ITERATION (1 INDICATES THE FIRST INNER ITERATION):

    RESIDUAL       RESIDUAL       RESIDUAL       RESIDUAL       RESIDUAL    
   LAYER,ROW,COL  LAYER,ROW,COL  LAYER,ROW,COL  LAYER,ROW,COL  LAYER,ROW,COL
 ---------------------------------------------------------------------------
  1  0.1771E-05  0  0.1350E-06  0  0.4062E-14  0  0.7802E-17  1  0.2815E-13
   (  1, 33,  5)  (  1, 34,  4)  (  1, 23,  5)  (  1, 33,  5)  (  1, 34,  4)


 UBUDSV SAVING "      ZETASRF  1" ON UNIT170 AT TIME STEP 38, STRESS PERIOD    1


                      VOLUMETRIC SWI ZONE BUDGET FOR ENTIRE MODEL
                     AT END OF TIME STEP   38 IN STRESS PERIOD   1
                                      ZONE     1
  -----------------------------------------------------------------------------------

        CUMULATIVE VOLUMES      L**3       RATES FOR THIS TIME STEP      L**3/T
        ------------------                 ------------------------

              IN:                                      IN:
              ---                                      ---
             BOUNDARIES =   384579712.0000            BOUNDARIES =           0.1607
          CONSTANT HEAD =           0.0000         CONSTANT HEAD =           0.0000
            ZONE CHANGE =    82559824.0000           ZONE CHANGE =       1.2528E-04
       ZONE CHG TIP/TOE =     3720456.7500      ZONE CHG TIP/TOE =       3.9531E-07
            ZONE MIXING =           0.0000           ZONE MIXING =           0.0000

               TOTAL IN =   470860000.0000              TOTAL IN =           0.1609

             OUT:                                     OUT:
             ----                                     ----
             BOUNDARIES =   357154496.0000            BOUNDARIES =           0.1601
          CONSTANT HEAD =           0.0000         CONSTANT HEAD =           0.0000
            ZONE CHANGE =    22332986.0000           ZONE CHANGE =       7.5782E-04
       ZONE CHG TIP/TOE =     3373746.2500      ZONE CHG TIP/TOE =       1.9765E-07
            ZONE MIXING =           0.0000           ZONE MIXING =           0.0000

              TOTAL OUT =   382861216.0000             TOTAL OUT =           0.1608

               IN - OUT =    87998784.0000              IN - OUT =       1.2785E-05

    PERCENT DISCREPANCY =          20.62     PERCENT DISCREPANCY =           0.01



                      VOLUMETRIC SWI ZONE BUDGET FOR ENTIRE MODEL
                     AT END OF TIME STEP   38 IN STRESS PERIOD   1
                                      ZONE     2
  -----------------------------------------------------------------------------------

        CUMULATIVE VOLUMES      L**3       RATES FOR THIS TIME STEP      L**3/T
        ------------------                 ------------------------

              IN:                                      IN:
              ---                                      ---
             BOUNDARIES =           0.0000            BOUNDARIES =           0.0000
          CONSTANT HEAD =           0.0000         CONSTANT HEAD =           0.0000
            ZONE CHANGE =    19144634.0000           ZONE CHANGE =       7.5724E-04
       ZONE CHG TIP/TOE =     3373746.2500      ZONE CHG TIP/TOE =       1.9765E-07
            ZONE MIXING =           0.0000           ZONE MIXING =           0.0000

               TOTAL IN =    22518380.0000              TOTAL IN =       7.5744E-04

             OUT:                                     OUT:
             ----                                     ----
             BOUNDARIES =    27437064.0000            BOUNDARIES =       6.4609E-04
          CONSTANT HEAD =           0.0000         CONSTANT HEAD =           0.0000
            ZONE CHANGE =     1958588.5000           ZONE CHANGE =       1.1068E-04
       ZONE CHG TIP/TOE =     1408051.0000      ZONE CHG TIP/TOE =       3.9531E-07
            ZONE MIXING =           0.0000           ZONE MIXING =           0.0000

              TOTAL OUT =    30803704.0000             TOTAL OUT =       7.5717E-04

               IN - OUT =    -8285324.0000              IN - OUT =       2.7253E-07

    PERCENT DISCREPANCY =         -31.08     PERCENT DISCREPANCY =           0.04


 HEAD WILL BE SAVED ON UNIT   37 AT END OF TIME STEP   38, STRESS PERIOD    1

 DRAWDOWN WILL BE SAVED ON UNIT   38 AT END OF TIME STEP   38, STRESS PERIOD    1
1
  VOLUMETRIC BUDGET FOR ENTIRE MODEL AT END OF TIME STEP   38, STRESS PERIOD   1
  ------------------------------------------------------------------------------

     CUMULATIVE VOLUMES      L**3       RATES FOR THIS TIME STEP      L**3/T
     ------------------                 ------------------------

           IN:                                      IN:
           ---                                      ---
             STORAGE =           0.0000               STORAGE =           0.0000
       CONSTANT HEAD =           0.0000         CONSTANT HEAD =           0.0000
               WELLS =           0.0000                 WELLS =           0.0000
       RIVER LEAKAGE =    83730864.0000         RIVER LEAKAGE =       3.5037E-02
                  ET =           0.0000                    ET =           0.0000
     HEAD DEP BOUNDS =           0.0000       HEAD DEP BOUNDS =           0.0000
            RECHARGE =   319709376.0000              RECHARGE =           0.1334
          SWIADDTOCH =           0.0000            SWIADDTOCH =           0.0000

            TOTAL IN =   403440256.0000              TOTAL IN =           0.1684

          OUT:                                     OUT:
          ----                                     ----
             STORAGE =           0.0000               STORAGE =           0.0000
       CONSTANT HEAD =           0.0000         CONSTANT HEAD =           0.0000
               WELLS =           0.0000                 WELLS =           0.0000
       RIVER LEAKAGE =    16468148.0000         RIVER LEAKAGE =       6.6905E-03
                  ET =   126182856.0000                    ET =       5.1638E-02
     HEAD DEP BOUNDS =   260800864.0000       HEAD DEP BOUNDS =           0.1101
            RECHARGE =           0.0000              RECHARGE =           0.0000
          SWIADDTOCH =           0.0000            SWIADDTOCH =           0.0000

           TOTAL OUT =   403451872.0000             TOTAL OUT =           0.1684

            IN - OUT =      -11616.0000              IN - OUT =      -9.5367E-07

 PERCENT DISCREPANCY =          -0.00     PERCENT DISCREPANCY =          -0.00






         TIME SUMMARY AT END OF TIME STEP   38 IN STRESS PERIOD    1
                    SECONDS     MINUTES      HOURS       DAYS        YEARS
                    -----------------------------------------------------------
   TIME STEP LENGTH 6.30720E+07 1.05120E+06  17520.      730.00      1.9986    
 STRESS PERIOD TIME 2.39674E+09 3.99456E+07 6.65760E+05  27740.      75.948    
         TOTAL TIME 2.39674E+09 3.99456E+07 6.65760E+05  27740.      75.948    
1
 
 SOLVING FOR HEAD 
     2 CALLS TO PCG ROUTINE FOR TIME STEP  39 IN STRESS PERIOD    1
    12 TOTAL ITERATIONS

 MAXIMUM HEAD CHANGE FOR EACH ITERATION (1 INDICATES THE FIRST INNER ITERATION):

    HEAD CHANGE    HEAD CHANGE    HEAD CHANGE    HEAD CHANGE    HEAD CHANGE 
   LAYER,ROW,COL  LAYER,ROW,COL  LAYER,ROW,COL  LAYER,ROW,COL  LAYER,ROW,COL
 ---------------------------------------------------------------------------
  1  0.3055E-01  0  0.3842E-01  0 -0.5185E-01  0  0.3391E-01  0 -0.2452E-01
   (  1, 23,  3)  (  2, 59, 34)  (  2, 59, 34)  (  2, 59, 34)  (  2, 59, 34)
  0  0.5633E-02  0 -0.4047E-02  0  0.3146E-02  0 -0.4389E-02  0  0.1838E-02
   (  2, 59, 34)  (  2, 20, 52)  (  2, 58, 31)  (  2, 58, 31)  (  2, 58, 31)
  0 -0.7397E-03  1  0.8270E-03
   (  2,  3, 32)  (  2, 59, 34)

 MAXIMUM RESIDUAL FOR EACH ITERATION (1 INDICATES THE FIRST INNER ITERATION):

    RESIDUAL       RESIDUAL       RESIDUAL       RESIDUAL       RESIDUAL    
   LAYER,ROW,COL  LAYER,ROW,COL  LAYER,ROW,COL  LAYER,ROW,COL  LAYER,ROW,COL
 ---------------------------------------------------------------------------
  1 -0.7618E-04  0 -0.2420E-04  0 -0.2119E-04  0 -0.1783E-04  0 -0.1632E-04
   (  2, 23,  2)  (  2, 23,  2)  (  2, 23,  2)  (  2, 22,  3)  (  2, 22,  3)
  0 -0.1442E-04  0 -0.9756E-05  0 -0.3761E-05  0  0.2280E-05  0  0.1726E-05
   (  2, 22,  3)  (  2, 22,  3)  (  2, 22,  3)  (  2, 23,  4)  (  2, 23,  4)
  0 -0.1260E-05  1 -0.1181E-05
   (  1, 23,  4)  (  1, 23,  4)



 OUTPUT CONTROL FOR STRESS PERIOD    1   TIME STEP   39
    SAVE HEAD FOR ALL LAYERS
    SAVE DRAWDOWN FOR ALL LAYERS
    SAVE BUDGET
    PRINT BUDGET
 UBDSV2 SAVING "   CONSTANT HEAD" ON UNIT   9 AT TIME STEP 39, STRESS PERIOD   1
 UBDSV1 SAVING "FLOW RIGHT FACE " ON UNIT   9 AT TIME STEP 39, STRESS PERIOD   1
 UBDSV1 SAVING "FLOW FRONT FACE " ON UNIT   9 AT TIME STEP 39, STRESS PERIOD   1
 UBDSV1 SAVING "FLOW LOWER FACE " ON UNIT   9 AT TIME STEP 39, STRESS PERIOD   1
 UBDSV4 SAVING "           WELLS" ON UNIT   9 AT TIME STEP 39, STRESS PERIOD   1
 UBDSV4 SAVING "   RIVER LEAKAGE" ON UNIT   9 AT TIME STEP 39, STRESS PERIOD   1
 UBDSV3 SAVING "              ET" ON UNIT   9 AT TIME STEP 39, STRESS PERIOD   1
 UBDSV4 SAVING " HEAD DEP BOUNDS" ON UNIT   9 AT TIME STEP 39, STRESS PERIOD   1
 UBDSV3 SAVING "        RECHARGE" ON UNIT   9 AT TIME STEP 39, STRESS PERIOD   1
 SOLVING FOR ZETA FOR LAYER     1 ZONE     2
     2 CALLS TO PCG ROUTINE FOR TIME STEP  39 IN STRESS PERIOD    1
     5 TOTAL ITERATIONS

 MAXIMUM HEAD CHANGE FOR EACH ITERATION (1 INDICATES THE FIRST INNER ITERATION):

    HEAD CHANGE    HEAD CHANGE    HEAD CHANGE    HEAD CHANGE    HEAD CHANGE 
   LAYER,ROW,COL  LAYER,ROW,COL  LAYER,ROW,COL  LAYER,ROW,COL  LAYER,ROW,COL
 ---------------------------------------------------------------------------
  1  -1.345      0 -0.7672E-01  0 -0.1747E-02  0  0.6537E-04  1  0.9900E-06
   (  1, 23,  3)  (  1, 23,  4)  (  1, 24,  3)  (  1, 32,  4)  (  1, 32,  3)

 MAXIMUM RESIDUAL FOR EACH ITERATION (1 INDICATES THE FIRST INNER ITERATION):

    RESIDUAL       RESIDUAL       RESIDUAL       RESIDUAL       RESIDUAL    
   LAYER,ROW,COL  LAYER,ROW,COL  LAYER,ROW,COL  LAYER,ROW,COL  LAYER,ROW,COL
 ---------------------------------------------------------------------------
  1  0.7358E-05  0  0.1830E-06  0  0.6034E-08  0 -0.1055E-09  1 -0.4022E-11
   (  1, 23,  4)  (  1, 24,  3)  (  1, 23,  4)  (  1, 32,  3)  (  1, 31,  4)


 SOLVING FOR ZETA FOR LAYER     2 ZONE     2
     2 CALLS TO PCG ROUTINE FOR TIME STEP  39 IN STRESS PERIOD    1
     4 TOTAL ITERATIONS

 MAXIMUM HEAD CHANGE FOR EACH ITERATION (1 INDICATES THE FIRST INNER ITERATION):

    HEAD CHANGE    HEAD CHANGE    HEAD CHANGE    HEAD CHANGE    HEAD CHANGE 
   LAYER,ROW,COL  LAYER,ROW,COL  LAYER,ROW,COL  LAYER,ROW,COL  LAYER,ROW,COL
 ---------------------------------------------------------------------------
  1  0.3366      0 -0.2040E-02  0 -0.1972E-04  1  0.1588E-07
   (  1, 33,  4)  (  1, 34,  4)  (  1, 33,  5)  (  1, 33,  4)

 MAXIMUM RESIDUAL FOR EACH ITERATION (1 INDICATES THE FIRST INNER ITERATION):

    RESIDUAL       RESIDUAL       RESIDUAL       RESIDUAL       RESIDUAL    
   LAYER,ROW,COL  LAYER,ROW,COL  LAYER,ROW,COL  LAYER,ROW,COL  LAYER,ROW,COL
 ---------------------------------------------------------------------------
  1  0.2021E-06  0  0.2115E-08  0 -0.4020E-14  1 -0.7334E-13
   (  1, 34,  4)  (  1, 33,  5)  (  1, 33,  4)  (  1, 33,  5)


 UBUDSV SAVING "      ZETASRF  1" ON UNIT170 AT TIME STEP 39, STRESS PERIOD    1


                      VOLUMETRIC SWI ZONE BUDGET FOR ENTIRE MODEL
                     AT END OF TIME STEP   39 IN STRESS PERIOD   1
                                      ZONE     1
  -----------------------------------------------------------------------------------

        CUMULATIVE VOLUMES      L**3       RATES FOR THIS TIME STEP      L**3/T
        ------------------                 ------------------------

              IN:                                      IN:
              ---                                      ---
             BOUNDARIES =   394717632.0000            BOUNDARIES =           0.1607
          CONSTANT HEAD =           0.0000         CONSTANT HEAD =           0.0000
            ZONE CHANGE =    82566192.0000           ZONE CHANGE =       1.0102E-04
       ZONE CHG TIP/TOE =     3720456.7500      ZONE CHG TIP/TOE =           0.0000
            ZONE MIXING =           0.0000           ZONE MIXING =           0.0000

               TOTAL IN =   481004288.0000              TOTAL IN =           0.1608

             OUT:                                     OUT:
             ----                                     ----
             BOUNDARIES =   367254816.0000            BOUNDARIES =           0.1601
          CONSTANT HEAD =           0.0000         CONSTANT HEAD =           0.0000
            ZONE CHANGE =    22376050.0000           ZONE CHANGE =       6.8278E-04
       ZONE CHG TIP/TOE =     3373746.2500      ZONE CHG TIP/TOE =           0.0000
            ZONE MIXING =           0.0000           ZONE MIXING =           0.0000

              TOTAL OUT =   393004608.0000             TOTAL OUT =           0.1608

               IN - OUT =    87999680.0000              IN - OUT =       1.4767E-05

    PERCENT DISCREPANCY =          20.14     PERCENT DISCREPANCY =           0.01



                      VOLUMETRIC SWI ZONE BUDGET FOR ENTIRE MODEL
                     AT END OF TIME STEP   39 IN STRESS PERIOD   1
                                      ZONE     2
  -----------------------------------------------------------------------------------

        CUMULATIVE VOLUMES      L**3       RATES FOR THIS TIME STEP      L**3/T
        ------------------                 ------------------------

              IN:                                      IN:
              ---                                      ---
             BOUNDARIES =           0.0000            BOUNDARIES =           0.0000
          CONSTANT HEAD =           0.0000         CONSTANT HEAD =           0.0000
            ZONE CHANGE =    19187676.0000           ZONE CHANGE =       6.8243E-04
       ZONE CHG TIP/TOE =     3373746.2500      ZONE CHG TIP/TOE =           0.0000
            ZONE MIXING =           0.0000           ZONE MIXING =           0.0000

               TOTAL IN =    22561422.0000              TOTAL IN =       6.8243E-04

             OUT:                                     OUT:
             ----                                     ----
             BOUNDARIES =    27474806.0000            BOUNDARIES =       5.9841E-04
          CONSTANT HEAD =           0.0000         CONSTANT HEAD =           0.0000
            ZONE CHANGE =     1963967.2500           ZONE CHANGE =       8.5279E-05
       ZONE CHG TIP/TOE =     1408051.0000      ZONE CHG TIP/TOE =           0.0000
            ZONE MIXING =           0.0000           ZONE MIXING =           0.0000

              TOTAL OUT =    30846824.0000             TOTAL OUT =       6.8369E-04

               IN - OUT =    -8285402.0000              IN - OUT =      -1.2557E-06

    PERCENT DISCREPANCY =         -31.03     PERCENT DISCREPANCY =          -0.18


 HEAD WILL BE SAVED ON UNIT   37 AT END OF TIME STEP   39, STRESS PERIOD    1

 DRAWDOWN WILL BE SAVED ON UNIT   38 AT END OF TIME STEP   39, STRESS PERIOD    1
1
  VOLUMETRIC BUDGET FOR ENTIRE MODEL AT END OF TIME STEP   39, STRESS PERIOD   1
  ------------------------------------------------------------------------------

     CUMULATIVE VOLUMES      L**3       RATES FOR THIS TIME STEP      L**3/T
     ------------------                 ------------------------

           IN:                                      IN:
           ---                                      ---
             STORAGE =           0.0000               STORAGE =           0.0000
       CONSTANT HEAD =           0.0000         CONSTANT HEAD =           0.0000
               WELLS =           0.0000                 WELLS =           0.0000
       RIVER LEAKAGE =    85940744.0000         RIVER LEAKAGE =       3.5037E-02
                  ET =           0.0000                    ET =           0.0000
     HEAD DEP BOUNDS =           0.0000       HEAD DEP BOUNDS =           0.0000
            RECHARGE =   328122784.0000              RECHARGE =           0.1334
          SWIADDTOCH =           0.0000            SWIADDTOCH =           0.0000

            TOTAL IN =   414063520.0000              TOTAL IN =           0.1684

          OUT:                                     OUT:
          ----                                     ----
             STORAGE =           0.0000               STORAGE =           0.0000
       CONSTANT HEAD =           0.0000         CONSTANT HEAD =           0.0000
               WELLS =           0.0000                 WELLS =           0.0000
       RIVER LEAKAGE =    16889984.0000         RIVER LEAKAGE =       6.6882E-03
                  ET =   129439296.0000                    ET =       5.1630E-02
     HEAD DEP BOUNDS =   267745984.0000       HEAD DEP BOUNDS =           0.1101
            RECHARGE =           0.0000              RECHARGE =           0.0000
          SWIADDTOCH =           0.0000            SWIADDTOCH =           0.0000

           TOTAL OUT =   414075264.0000             TOTAL OUT =           0.1684

            IN - OUT =      -11744.0000              IN - OUT =      -1.8626E-06

 PERCENT DISCREPANCY =          -0.00     PERCENT DISCREPANCY =          -0.00






         TIME SUMMARY AT END OF TIME STEP   39 IN STRESS PERIOD    1
                    SECONDS     MINUTES      HOURS       DAYS        YEARS
                    -----------------------------------------------------------
   TIME STEP LENGTH 6.30720E+07 1.05120E+06  17520.      730.00      1.9986    
 STRESS PERIOD TIME 2.45981E+09 4.09968E+07 6.83280E+05  28470.      77.947    
         TOTAL TIME 2.45981E+09 4.09968E+07 6.83280E+05  28470.      77.947    
1
 
 SOLVING FOR HEAD 
     2 CALLS TO PCG ROUTINE FOR TIME STEP  40 IN STRESS PERIOD    1
    13 TOTAL ITERATIONS

 MAXIMUM HEAD CHANGE FOR EACH ITERATION (1 INDICATES THE FIRST INNER ITERATION):

    HEAD CHANGE    HEAD CHANGE    HEAD CHANGE    HEAD CHANGE    HEAD CHANGE 
   LAYER,ROW,COL  LAYER,ROW,COL  LAYER,ROW,COL  LAYER,ROW,COL  LAYER,ROW,COL
 ---------------------------------------------------------------------------
  1 -0.6061E-01  0  0.7634E-01  0 -0.3646E-01  0  0.2782E-01  0 -0.1540E-01
   (  2, 59, 34)  (  2, 59, 34)  (  2, 59, 34)  (  2, 59, 34)  (  2,  3, 32)
  0 -0.8297E-02  0  0.7399E-02  0 -0.2134E-02  0 -0.1545E-02  0 -0.2737E-02
   (  2, 58, 31)  (  2, 58, 31)  (  2, 58, 31)  (  2, 58, 31)  (  2, 59, 34)
  0  0.3358E-02  0 -0.7607E-03  1  0.2542E-03
   (  2, 59, 34)  (  2, 59, 34)  (  2, 21, 50)

 MAXIMUM RESIDUAL FOR EACH ITERATION (1 INDICATES THE FIRST INNER ITERATION):

    RESIDUAL       RESIDUAL       RESIDUAL       RESIDUAL       RESIDUAL    
   LAYER,ROW,COL  LAYER,ROW,COL  LAYER,ROW,COL  LAYER,ROW,COL  LAYER,ROW,COL
 ---------------------------------------------------------------------------
  1 -0.5007E-04  0 -0.4970E-04  0 -0.3854E-04  0 -0.2726E-04  0 -0.1131E-04
   (  2, 23,  2)  (  2, 23,  2)  (  2, 23,  2)  (  2, 23,  2)  (  2, 22,  3)
  0 -0.9225E-05  0 -0.3877E-05  0 -0.2379E-05  0  0.1892E-05  0  0.1247E-05
   (  2, 22,  3)  (  2, 22,  3)  (  2, 22,  3)  (  2, 23,  4)  (  2, 23,  4)
  0  0.1155E-05  0  0.7588E-06  1  0.6890E-06
   (  2, 23,  4)  (  2, 23,  4)  (  2, 23,  4)



 OUTPUT CONTROL FOR STRESS PERIOD    1   TIME STEP   40
    SAVE HEAD FOR ALL LAYERS
    SAVE DRAWDOWN FOR ALL LAYERS
    SAVE BUDGET
    PRINT BUDGET
 UBDSV2 SAVING "   CONSTANT HEAD" ON UNIT   9 AT TIME STEP 40, STRESS PERIOD   1
 UBDSV1 SAVING "FLOW RIGHT FACE " ON UNIT   9 AT TIME STEP 40, STRESS PERIOD   1
 UBDSV1 SAVING "FLOW FRONT FACE " ON UNIT   9 AT TIME STEP 40, STRESS PERIOD   1
 UBDSV1 SAVING "FLOW LOWER FACE " ON UNIT   9 AT TIME STEP 40, STRESS PERIOD   1
 UBDSV4 SAVING "           WELLS" ON UNIT   9 AT TIME STEP 40, STRESS PERIOD   1
 UBDSV4 SAVING "   RIVER LEAKAGE" ON UNIT   9 AT TIME STEP 40, STRESS PERIOD   1
 UBDSV3 SAVING "              ET" ON UNIT   9 AT TIME STEP 40, STRESS PERIOD   1
 UBDSV4 SAVING " HEAD DEP BOUNDS" ON UNIT   9 AT TIME STEP 40, STRESS PERIOD   1
 UBDSV3 SAVING "        RECHARGE" ON UNIT   9 AT TIME STEP 40, STRESS PERIOD   1
 SOLVING FOR ZETA FOR LAYER     1 ZONE     2
     2 CALLS TO PCG ROUTINE FOR TIME STEP  40 IN STRESS PERIOD    1
     4 TOTAL ITERATIONS

 MAXIMUM HEAD CHANGE FOR EACH ITERATION (1 INDICATES THE FIRST INNER ITERATION):

    HEAD CHANGE    HEAD CHANGE    HEAD CHANGE    HEAD CHANGE    HEAD CHANGE 
   LAYER,ROW,COL  LAYER,ROW,COL  LAYER,ROW,COL  LAYER,ROW,COL  LAYER,ROW,COL
 ---------------------------------------------------------------------------
  1 -0.9045      0 -0.5013E-01  0 -0.9622E-03  1  0.2997E-04
   (  1, 23,  3)  (  1, 23,  4)  (  1, 24,  3)  (  1, 32,  4)

 MAXIMUM RESIDUAL FOR EACH ITERATION (1 INDICATES THE FIRST INNER ITERATION):

    RESIDUAL       RESIDUAL       RESIDUAL       RESIDUAL       RESIDUAL    
   LAYER,ROW,COL  LAYER,ROW,COL  LAYER,ROW,COL  LAYER,ROW,COL  LAYER,ROW,COL
 ---------------------------------------------------------------------------
  1  0.4818E-05  0  0.9915E-07  0  0.2870E-08  1  0.1443E-09
   (  1, 23,  4)  (  1, 24,  3)  (  1, 23,  4)  (  1, 24,  3)


 SOLVING FOR ZETA FOR LAYER     2 ZONE     2
     2 CALLS TO PCG ROUTINE FOR TIME STEP  40 IN STRESS PERIOD    1
     4 TOTAL ITERATIONS

 MAXIMUM HEAD CHANGE FOR EACH ITERATION (1 INDICATES THE FIRST INNER ITERATION):

    HEAD CHANGE    HEAD CHANGE    HEAD CHANGE    HEAD CHANGE    HEAD CHANGE 
   LAYER,ROW,COL  LAYER,ROW,COL  LAYER,ROW,COL  LAYER,ROW,COL  LAYER,ROW,COL
 ---------------------------------------------------------------------------
  1 -0.2506      0 -0.1444E-01  0 -0.9139E-03  1  0.7339E-08
   (  1,  5,  9)  (  1, 33,  5)  (  1, 34,  4)  (  1,  5,  9)

 MAXIMUM RESIDUAL FOR EACH ITERATION (1 INDICATES THE FIRST INNER ITERATION):

    RESIDUAL       RESIDUAL       RESIDUAL       RESIDUAL       RESIDUAL    
   LAYER,ROW,COL  LAYER,ROW,COL  LAYER,ROW,COL  LAYER,ROW,COL  LAYER,ROW,COL
 ---------------------------------------------------------------------------
  1  0.1366E-05  0  0.1029E-06  0 -0.2845E-14  1  0.3916E-13
   (  1, 33,  5)  (  1, 34,  4)  (  1,  9,  9)  (  1, 33,  5)


 UBUDSV SAVING "      ZETASRF  1" ON UNIT170 AT TIME STEP 40, STRESS PERIOD    1


                      VOLUMETRIC SWI ZONE BUDGET FOR ENTIRE MODEL
                     AT END OF TIME STEP   40 IN STRESS PERIOD   1
                                      ZONE     1
  -----------------------------------------------------------------------------------

        CUMULATIVE VOLUMES      L**3       RATES FOR THIS TIME STEP      L**3/T
        ------------------                 ------------------------

              IN:                                      IN:
              ---                                      ---
             BOUNDARIES =   404855616.0000            BOUNDARIES =           0.1607
          CONSTANT HEAD =           0.0000         CONSTANT HEAD =           0.0000
            ZONE CHANGE =    82569656.0000           ZONE CHANGE =       5.4933E-05
       ZONE CHG TIP/TOE =     3736623.0000      ZONE CHG TIP/TOE =       2.5632E-04
            ZONE MIXING =           0.0000           ZONE MIXING =           0.0000

               TOTAL IN =   491161888.0000              TOTAL IN =           0.1610

             OUT:                                     OUT:
             ----                                     ----
             BOUNDARIES =   377357856.0000            BOUNDARIES =           0.1602
          CONSTANT HEAD =           0.0000         CONSTANT HEAD =           0.0000
            ZONE CHANGE =    22413922.0000           ZONE CHANGE =       6.0044E-04
       ZONE CHG TIP/TOE =     3389746.2500      ZONE CHG TIP/TOE =       2.5368E-04
            ZONE MIXING =           0.0000           ZONE MIXING =           0.0000

              TOTAL OUT =   403161536.0000             TOTAL OUT =           0.1610

               IN - OUT =    88000352.0000              IN - OUT =       1.1459E-05

    PERCENT DISCREPANCY =          19.68     PERCENT DISCREPANCY =           0.01



                      VOLUMETRIC SWI ZONE BUDGET FOR ENTIRE MODEL
                     AT END OF TIME STEP   40 IN STRESS PERIOD   1
                                      ZONE     2
  -----------------------------------------------------------------------------------

        CUMULATIVE VOLUMES      L**3       RATES FOR THIS TIME STEP      L**3/T
        ------------------                 ------------------------

              IN:                                      IN:
              ---                                      ---
             BOUNDARIES =           0.0000            BOUNDARIES =           0.0000
          CONSTANT HEAD =           0.0000         CONSTANT HEAD =           0.0000
            ZONE CHANGE =    19225360.0000           ZONE CHANGE =       5.9747E-04
       ZONE CHG TIP/TOE =     3389746.2500      ZONE CHG TIP/TOE =       2.5368E-04
            ZONE MIXING =           0.0000           ZONE MIXING =           0.0000

               TOTAL IN =    22615106.0000              TOTAL IN =       8.5115E-04

             OUT:                                     OUT:
             ----                                     ----
             BOUNDARIES =    27509848.0000            BOUNDARIES =       5.5560E-04
          CONSTANT HEAD =           0.0000         CONSTANT HEAD =           0.0000
            ZONE CHANGE =     1966803.5000           ZONE CHANGE =       4.4969E-05
       ZONE CHG TIP/TOE =     1424051.0000      ZONE CHG TIP/TOE =       2.5368E-04
            ZONE MIXING =           0.0000           ZONE MIXING =           0.0000

              TOTAL OUT =    30900702.0000             TOTAL OUT =       8.5424E-04

               IN - OUT =    -8285596.0000              IN - OUT =      -3.0956E-06

    PERCENT DISCREPANCY =         -30.97     PERCENT DISCREPANCY =          -0.36


 HEAD WILL BE SAVED ON UNIT   37 AT END OF TIME STEP   40, STRESS PERIOD    1

 DRAWDOWN WILL BE SAVED ON UNIT   38 AT END OF TIME STEP   40, STRESS PERIOD    1
1
  VOLUMETRIC BUDGET FOR ENTIRE MODEL AT END OF TIME STEP   40, STRESS PERIOD   1
  ------------------------------------------------------------------------------

     CUMULATIVE VOLUMES      L**3       RATES FOR THIS TIME STEP      L**3/T
     ------------------                 ------------------------

           IN:                                      IN:
           ---                                      ---
             STORAGE =           0.0000               STORAGE =           0.0000
       CONSTANT HEAD =           0.0000         CONSTANT HEAD =           0.0000
               WELLS =           0.0000                 WELLS =           0.0000
       RIVER LEAKAGE =    88150648.0000         RIVER LEAKAGE =       3.5038E-02
                  ET =           0.0000                    ET =           0.0000
     HEAD DEP BOUNDS =           0.0000       HEAD DEP BOUNDS =           0.0000
            RECHARGE =   336536192.0000              RECHARGE =           0.1334
          SWIADDTOCH =           0.0000            SWIADDTOCH =           0.0000

            TOTAL IN =   424686848.0000              TOTAL IN =           0.1684

          OUT:                                     OUT:
          ----                                     ----
             STORAGE =           0.0000               STORAGE =           0.0000
       CONSTANT HEAD =           0.0000         CONSTANT HEAD =           0.0000
               WELLS =           0.0000                 WELLS =           0.0000
       RIVER LEAKAGE =    17311750.0000         RIVER LEAKAGE =       6.6870E-03
                  ET =   132695504.0000                    ET =       5.1627E-02
     HEAD DEP BOUNDS =   274691392.0000       HEAD DEP BOUNDS =           0.1101
            RECHARGE =           0.0000              RECHARGE =           0.0000
          SWIADDTOCH =           0.0000            SWIADDTOCH =           0.0000

           TOTAL OUT =   424698624.0000             TOTAL OUT =           0.1684

            IN - OUT =      -11776.0000              IN - OUT =      -1.2666E-06

 PERCENT DISCREPANCY =          -0.00     PERCENT DISCREPANCY =          -0.00






         TIME SUMMARY AT END OF TIME STEP   40 IN STRESS PERIOD    1
                    SECONDS     MINUTES      HOURS       DAYS        YEARS
                    -----------------------------------------------------------
   TIME STEP LENGTH 6.30720E+07 1.05120E+06  17520.      730.00      1.9986    
 STRESS PERIOD TIME 2.52288E+09 4.20480E+07 7.00800E+05  29200.      79.945    
         TOTAL TIME 2.52288E+09 4.20480E+07 7.00800E+05  29200.      79.945    
1
 
 SOLVING FOR HEAD 
     2 CALLS TO PCG ROUTINE FOR TIME STEP  41 IN STRESS PERIOD    1
    18 TOTAL ITERATIONS

 MAXIMUM HEAD CHANGE FOR EACH ITERATION (1 INDICATES THE FIRST INNER ITERATION):

    HEAD CHANGE    HEAD CHANGE    HEAD CHANGE    HEAD CHANGE    HEAD CHANGE 
   LAYER,ROW,COL  LAYER,ROW,COL  LAYER,ROW,COL  LAYER,ROW,COL  LAYER,ROW,COL
 ---------------------------------------------------------------------------
  1  0.1815      0  0.1082      0 -0.3338      0  0.2536      0 -0.1813E-01
   (  1, 30,  3)  (  2, 59, 34)  (  2, 59, 34)  (  2, 59, 34)  (  2, 19, 52)
  0  0.1523E-01  0  0.1210E-01  0 -0.3997E-02  0  0.3771E-02  0 -0.2418E-02
   (  2, 20, 52)  (  2, 22, 49)  (  1, 35,  8)  (  2, 58, 31)  (  2, 59, 34)
  0  0.6219E-02  0 -0.7160E-02  0  0.7176E-02  0 -0.4057E-02  0  0.2363E-02
   (  2, 59, 34)  (  2, 59, 34)  (  2, 59, 34)  (  2, 59, 34)  (  2, 58, 31)
  0 -0.1613E-02  0  0.2953E-03  1 -0.1202E-03
   (  2, 58, 31)  (  2, 58, 31)  (  2, 58, 31)

 MAXIMUM RESIDUAL FOR EACH ITERATION (1 INDICATES THE FIRST INNER ITERATION):

    RESIDUAL       RESIDUAL       RESIDUAL       RESIDUAL       RESIDUAL    
   LAYER,ROW,COL  LAYER,ROW,COL  LAYER,ROW,COL  LAYER,ROW,COL  LAYER,ROW,COL
 ---------------------------------------------------------------------------
  1  0.4178E-03  0  0.3885E-03  0 -0.1038E-03  0 -0.1052E-03  0 -0.7903E-04
   (  2, 30,  3)  (  2, 30,  3)  (  2, 29,  3)  (  2, 29,  3)  (  2, 29,  3)
  0 -0.5804E-04  0 -0.4110E-04  0  0.1535E-04  0  0.1293E-04  0  0.6590E-05
   (  2, 29,  3)  (  2, 29,  3)  (  2, 29,  4)  (  2, 29,  4)  (  2, 29,  4)
  0  0.5808E-05  0  0.4486E-05  0  0.3788E-05  0  0.2266E-05  0 -0.1589E-05
   (  2, 29,  4)  (  2, 29,  4)  (  2, 29,  4)  (  2, 29,  4)  (  1, 29,  4)
  0 -0.9705E-06  0 -0.4693E-06  1 -0.3682E-06
   (  1, 29,  4)  (  1, 29,  4)  (  1, 29,  4)



 OUTPUT CONTROL FOR STRESS PERIOD    1   TIME STEP   41
    SAVE HEAD FOR ALL LAYERS
    SAVE DRAWDOWN FOR ALL LAYERS
    SAVE BUDGET
    PRINT BUDGET
 UBDSV2 SAVING "   CONSTANT HEAD" ON UNIT   9 AT TIME STEP 41, STRESS PERIOD   1
 UBDSV1 SAVING "FLOW RIGHT FACE " ON UNIT   9 AT TIME STEP 41, STRESS PERIOD   1
 UBDSV1 SAVING "FLOW FRONT FACE " ON UNIT   9 AT TIME STEP 41, STRESS PERIOD   1
 UBDSV1 SAVING "FLOW LOWER FACE " ON UNIT   9 AT TIME STEP 41, STRESS PERIOD   1
 UBDSV4 SAVING "           WELLS" ON UNIT   9 AT TIME STEP 41, STRESS PERIOD   1
 UBDSV4 SAVING "   RIVER LEAKAGE" ON UNIT   9 AT TIME STEP 41, STRESS PERIOD   1
 UBDSV3 SAVING "              ET" ON UNIT   9 AT TIME STEP 41, STRESS PERIOD   1
 UBDSV4 SAVING " HEAD DEP BOUNDS" ON UNIT   9 AT TIME STEP 41, STRESS PERIOD   1
 UBDSV3 SAVING "        RECHARGE" ON UNIT   9 AT TIME STEP 41, STRESS PERIOD   1
 SOLVING FOR ZETA FOR LAYER     1 ZONE     2
     2 CALLS TO PCG ROUTINE FOR TIME STEP  41 IN STRESS PERIOD    1
     5 TOTAL ITERATIONS

 MAXIMUM HEAD CHANGE FOR EACH ITERATION (1 INDICATES THE FIRST INNER ITERATION):

    HEAD CHANGE    HEAD CHANGE    HEAD CHANGE    HEAD CHANGE    HEAD CHANGE 
   LAYER,ROW,COL  LAYER,ROW,COL  LAYER,ROW,COL  LAYER,ROW,COL  LAYER,ROW,COL
 ---------------------------------------------------------------------------
  1  -5.963      0 -0.3319      0  0.6155E-02  0 -0.2198E-03  1 -0.4476E-05
   (  1, 27,  3)  (  1, 29,  4)  (  1, 27,  3)  (  1, 30,  4)  (  1, 31,  3)

 MAXIMUM RESIDUAL FOR EACH ITERATION (1 INDICATES THE FIRST INNER ITERATION):

    RESIDUAL       RESIDUAL       RESIDUAL       RESIDUAL       RESIDUAL    
   LAYER,ROW,COL  LAYER,ROW,COL  LAYER,ROW,COL  LAYER,ROW,COL  LAYER,ROW,COL
 ---------------------------------------------------------------------------
  1  0.3396E-04  0  0.7706E-06  0 -0.2397E-07  0  0.5906E-09  1  0.1837E-10
   (  1, 29,  4)  (  1, 30,  3)  (  1, 31,  3)  (  1, 31,  3)  (  1, 30,  4)


 SOLVING FOR ZETA FOR LAYER     2 ZONE     2
     2 CALLS TO PCG ROUTINE FOR TIME STEP  41 IN STRESS PERIOD    1
     5 TOTAL ITERATIONS

 MAXIMUM HEAD CHANGE FOR EACH ITERATION (1 INDICATES THE FIRST INNER ITERATION):

    HEAD CHANGE    HEAD CHANGE    HEAD CHANGE    HEAD CHANGE    HEAD CHANGE 
   LAYER,ROW,COL  LAYER,ROW,COL  LAYER,ROW,COL  LAYER,ROW,COL  LAYER,ROW,COL
 ---------------------------------------------------------------------------
  1 -0.2418      0 -0.1788E-01  0 -0.1087E-02  0  0.4675E-10  1 -0.7104E-08
   (  1, 34,  4)  (  1, 33,  5)  (  1, 34,  4)  (  1,  9,  9)  (  1, 34,  4)

 MAXIMUM RESIDUAL FOR EACH ITERATION (1 INDICATES THE FIRST INNER ITERATION):

    RESIDUAL       RESIDUAL       RESIDUAL       RESIDUAL       RESIDUAL    
   LAYER,ROW,COL  LAYER,ROW,COL  LAYER,ROW,COL  LAYER,ROW,COL  LAYER,ROW,COL
 ---------------------------------------------------------------------------
  1  0.1748E-05  0  0.1268E-06  0 -0.3140E-14  0 -0.1199E-16  1  0.5507E-13
   (  1, 33,  5)  (  1, 34,  4)  (  1,  9,  9)  (  1, 34,  4)  (  1, 33,  5)


 UBUDSV SAVING "      ZETASRF  1" ON UNIT170 AT TIME STEP 41, STRESS PERIOD    1


                      VOLUMETRIC SWI ZONE BUDGET FOR ENTIRE MODEL
                     AT END OF TIME STEP   41 IN STRESS PERIOD   1
                                      ZONE     1
  -----------------------------------------------------------------------------------

        CUMULATIVE VOLUMES      L**3       RATES FOR THIS TIME STEP      L**3/T
        ------------------                 ------------------------

              IN:                                      IN:
              ---                                      ---
             BOUNDARIES =   414994112.0000            BOUNDARIES =           0.1607
          CONSTANT HEAD =           0.0000         CONSTANT HEAD =           0.0000
            ZONE CHANGE =    82610912.0000           ZONE CHANGE =       6.5411E-04
       ZONE CHG TIP/TOE =     3736623.0000      ZONE CHG TIP/TOE =           0.0000
            ZONE MIXING =           0.0000           ZONE MIXING =           0.0000

               TOTAL IN =   501341632.0000              TOTAL IN =           0.1614

             OUT:                                     OUT:
             ----                                     ----
             BOUNDARIES =   387468640.0000            BOUNDARIES =           0.1603
          CONSTANT HEAD =           0.0000         CONSTANT HEAD =           0.0000
            ZONE CHANGE =    22479622.0000           ZONE CHANGE =       1.0417E-03
       ZONE CHG TIP/TOE =     3389746.2500      ZONE CHG TIP/TOE =           0.0000
            ZONE MIXING =           0.0000           ZONE MIXING =           0.0000

              TOTAL OUT =   413338016.0000             TOTAL OUT =           0.1613

               IN - OUT =    88003616.0000              IN - OUT =       5.1692E-05

    PERCENT DISCREPANCY =          19.24     PERCENT DISCREPANCY =           0.03



                      VOLUMETRIC SWI ZONE BUDGET FOR ENTIRE MODEL
                     AT END OF TIME STEP   41 IN STRESS PERIOD   1
                                      ZONE     2
  -----------------------------------------------------------------------------------

        CUMULATIVE VOLUMES      L**3       RATES FOR THIS TIME STEP      L**3/T
        ------------------                 ------------------------

              IN:                                      IN:
              ---                                      ---
             BOUNDARIES =           0.0000            BOUNDARIES =           0.0000
          CONSTANT HEAD =           0.0000         CONSTANT HEAD =           0.0000
            ZONE CHANGE =    19291048.0000           ZONE CHANGE =       1.0415E-03
       ZONE CHG TIP/TOE =     3389746.2500      ZONE CHG TIP/TOE =           0.0000
            ZONE MIXING =           0.0000           ZONE MIXING =           0.0000

               TOTAL IN =    22680794.0000              TOTAL IN =       1.0415E-03

             OUT:                                     OUT:
             ----                                     ----
             BOUNDARIES =    27537706.0000            BOUNDARIES =       4.4168E-04
          CONSTANT HEAD =           0.0000         CONSTANT HEAD =           0.0000
            ZONE CHANGE =     2004622.6250           ZONE CHANGE =       5.9962E-04
       ZONE CHG TIP/TOE =     1424051.0000      ZONE CHG TIP/TOE =           0.0000
            ZONE MIXING =           0.0000           ZONE MIXING =           0.0000

              TOTAL OUT =    30966380.0000             TOTAL OUT =       1.0413E-03

               IN - OUT =    -8285586.0000              IN - OUT =       1.8557E-07

    PERCENT DISCREPANCY =         -30.89     PERCENT DISCREPANCY =           0.02


 HEAD WILL BE SAVED ON UNIT   37 AT END OF TIME STEP   41, STRESS PERIOD    1

 DRAWDOWN WILL BE SAVED ON UNIT   38 AT END OF TIME STEP   41, STRESS PERIOD    1
1
  VOLUMETRIC BUDGET FOR ENTIRE MODEL AT END OF TIME STEP   41, STRESS PERIOD   1
  ------------------------------------------------------------------------------

     CUMULATIVE VOLUMES      L**3       RATES FOR THIS TIME STEP      L**3/T
     ------------------                 ------------------------

           IN:                                      IN:
           ---                                      ---
             STORAGE =           0.0000               STORAGE =           0.0000
       CONSTANT HEAD =           0.0000         CONSTANT HEAD =           0.0000
               WELLS =           0.0000                 WELLS =           0.0000
       RIVER LEAKAGE =    90360912.0000         RIVER LEAKAGE =       3.5044E-02
                  ET =           0.0000                    ET =           0.0000
     HEAD DEP BOUNDS =           0.0000       HEAD DEP BOUNDS =           0.0000
            RECHARGE =   344949600.0000              RECHARGE =           0.1334
          SWIADDTOCH =           0.0000            SWIADDTOCH =           0.0000

            TOTAL IN =   435310528.0000              TOTAL IN =           0.1684

          OUT:                                     OUT:
          ----                                     ----
             STORAGE =           0.0000               STORAGE =           0.0000
       CONSTANT HEAD =           0.0000         CONSTANT HEAD =           0.0000
               WELLS =           0.0000                 WELLS =           0.0000
       RIVER LEAKAGE =    17732760.0000         RIVER LEAKAGE =       6.6751E-03
                  ET =   135950016.0000                    ET =       5.1600E-02
     HEAD DEP BOUNDS =   281639680.0000       HEAD DEP BOUNDS =           0.1102
            RECHARGE =           0.0000              RECHARGE =           0.0000
          SWIADDTOCH =           0.0000            SWIADDTOCH =           0.0000

           TOTAL OUT =   435322464.0000             TOTAL OUT =           0.1684

            IN - OUT =      -11936.0000              IN - OUT =      -2.4140E-06

 PERCENT DISCREPANCY =          -0.00     PERCENT DISCREPANCY =          -0.00






         TIME SUMMARY AT END OF TIME STEP   41 IN STRESS PERIOD    1
                    SECONDS     MINUTES      HOURS       DAYS        YEARS
                    -----------------------------------------------------------
   TIME STEP LENGTH 6.30720E+07 1.05120E+06  17520.      730.00      1.9986    
 STRESS PERIOD TIME 2.58595E+09 4.30992E+07 7.18320E+05  29930.      81.944    
         TOTAL TIME 2.58595E+09 4.30992E+07 7.18320E+05  29930.      81.944    
1
 
 SOLVING FOR HEAD 
     2 CALLS TO PCG ROUTINE FOR TIME STEP  42 IN STRESS PERIOD    1
    15 TOTAL ITERATIONS

 MAXIMUM HEAD CHANGE FOR EACH ITERATION (1 INDICATES THE FIRST INNER ITERATION):

    HEAD CHANGE    HEAD CHANGE    HEAD CHANGE    HEAD CHANGE    HEAD CHANGE 
   LAYER,ROW,COL  LAYER,ROW,COL  LAYER,ROW,COL  LAYER,ROW,COL  LAYER,ROW,COL
 ---------------------------------------------------------------------------
  1  0.1321      0 -0.6118E-01  0  0.2521      0 -0.1959      0  0.1522E-01
   (  1, 27,  3)  (  2, 59, 34)  (  2, 59, 34)  (  2, 59, 34)  (  2, 58, 31)
  0 -0.6567E-02  0 -0.1147E-01  0  0.6151E-02  0  0.5008E-02  0 -0.1995E-02
   (  2, 58, 31)  (  2, 58, 31)  (  2,  3, 32)  (  2, 58, 31)  (  2, 58, 31)
  0 -0.2252E-02  0  0.7814E-02  0 -0.6600E-02  0 -0.3402E-03  1  0.3068E-03
   (  2, 58, 31)  (  2, 59, 34)  (  2, 59, 34)  (  2, 58, 31)  (  2, 19, 52)

 MAXIMUM RESIDUAL FOR EACH ITERATION (1 INDICATES THE FIRST INNER ITERATION):

    RESIDUAL       RESIDUAL       RESIDUAL       RESIDUAL       RESIDUAL    
   LAYER,ROW,COL  LAYER,ROW,COL  LAYER,ROW,COL  LAYER,ROW,COL  LAYER,ROW,COL
 ---------------------------------------------------------------------------
  1 -0.1433E-03  0 -0.1115E-03  0 -0.5567E-04  0 -0.4308E-04  0 -0.2869E-04
   (  2, 26,  3)  (  2, 26,  3)  (  2, 26,  3)  (  2, 29,  3)  (  2, 29,  3)
  0  0.2260E-04  0  0.1504E-04  0  0.9358E-05  0 -0.6430E-05  0 -0.4949E-05
   (  2, 26,  4)  (  2, 26,  4)  (  2, 26,  4)  (  1, 26,  4)  (  2, 25,  4)
  0 -0.3145E-05  0 -0.2381E-05  0 -0.1367E-05  0 -0.8253E-06  1 -0.7283E-06
   (  2, 25,  4)  (  2, 25,  4)  (  2, 25,  4)  (  1, 29,  4)  (  1, 29,  4)



 OUTPUT CONTROL FOR STRESS PERIOD    1   TIME STEP   42
    SAVE HEAD FOR ALL LAYERS
    SAVE DRAWDOWN FOR ALL LAYERS
    SAVE BUDGET
    PRINT BUDGET
 UBDSV2 SAVING "   CONSTANT HEAD" ON UNIT   9 AT TIME STEP 42, STRESS PERIOD   1
 UBDSV1 SAVING "FLOW RIGHT FACE " ON UNIT   9 AT TIME STEP 42, STRESS PERIOD   1
 UBDSV1 SAVING "FLOW FRONT FACE " ON UNIT   9 AT TIME STEP 42, STRESS PERIOD   1
 UBDSV1 SAVING "FLOW LOWER FACE " ON UNIT   9 AT TIME STEP 42, STRESS PERIOD   1
 UBDSV4 SAVING "           WELLS" ON UNIT   9 AT TIME STEP 42, STRESS PERIOD   1
 UBDSV4 SAVING "   RIVER LEAKAGE" ON UNIT   9 AT TIME STEP 42, STRESS PERIOD   1
 UBDSV3 SAVING "              ET" ON UNIT   9 AT TIME STEP 42, STRESS PERIOD   1
 UBDSV4 SAVING " HEAD DEP BOUNDS" ON UNIT   9 AT TIME STEP 42, STRESS PERIOD   1
 UBDSV3 SAVING "        RECHARGE" ON UNIT   9 AT TIME STEP 42, STRESS PERIOD   1
 SOLVING FOR ZETA FOR LAYER     1 ZONE     2
     2 CALLS TO PCG ROUTINE FOR TIME STEP  42 IN STRESS PERIOD    1
     5 TOTAL ITERATIONS

 MAXIMUM HEAD CHANGE FOR EACH ITERATION (1 INDICATES THE FIRST INNER ITERATION):

    HEAD CHANGE    HEAD CHANGE    HEAD CHANGE    HEAD CHANGE    HEAD CHANGE 
   LAYER,ROW,COL  LAYER,ROW,COL  LAYER,ROW,COL  LAYER,ROW,COL  LAYER,ROW,COL
 ---------------------------------------------------------------------------
  1  -4.159      0 -0.2498      0  0.4588E-02  0 -0.1977E-03  1 -0.9463E-05
   (  1, 27,  3)  (  1, 29,  4)  (  1, 27,  3)  (  1, 30,  4)  (  1, 31,  3)

 MAXIMUM RESIDUAL FOR EACH ITERATION (1 INDICATES THE FIRST INNER ITERATION):

    RESIDUAL       RESIDUAL       RESIDUAL       RESIDUAL       RESIDUAL    
   LAYER,ROW,COL  LAYER,ROW,COL  LAYER,ROW,COL  LAYER,ROW,COL  LAYER,ROW,COL
 ---------------------------------------------------------------------------
  1  0.2636E-04  0  0.5763E-06  0  0.2048E-07  0  0.1207E-08  1  0.5877E-10
   (  1, 29,  4)  (  1, 30,  3)  (  1, 30,  4)  (  1, 31,  3)  (  1, 30,  4)


 SOLVING FOR ZETA FOR LAYER     2 ZONE     2
     2 CALLS TO PCG ROUTINE FOR TIME STEP  42 IN STRESS PERIOD    1
     5 TOTAL ITERATIONS

 MAXIMUM HEAD CHANGE FOR EACH ITERATION (1 INDICATES THE FIRST INNER ITERATION):

    HEAD CHANGE    HEAD CHANGE    HEAD CHANGE    HEAD CHANGE    HEAD CHANGE 
   LAYER,ROW,COL  LAYER,ROW,COL  LAYER,ROW,COL  LAYER,ROW,COL  LAYER,ROW,COL
 ---------------------------------------------------------------------------
  1  0.3335      0 -0.1802E-01  0 -0.1241E-02  0 -0.4407E-10  1 -0.8335E-08
   (  1, 30,  5)  (  1, 33,  5)  (  1, 34,  4)  (  1, 30,  5)  (  1, 29,  5)

 MAXIMUM RESIDUAL FOR EACH ITERATION (1 INDICATES THE FIRST INNER ITERATION):

    RESIDUAL       RESIDUAL       RESIDUAL       RESIDUAL       RESIDUAL    
   LAYER,ROW,COL  LAYER,ROW,COL  LAYER,ROW,COL  LAYER,ROW,COL  LAYER,ROW,COL
 ---------------------------------------------------------------------------
  1  0.1744E-05  0  0.1415E-06  0  0.5580E-14  0  0.2564E-16  1  0.2840E-13
   (  1, 33,  5)  (  1, 34,  4)  (  1, 30,  5)  (  1, 34,  4)  (  1, 33,  5)


 UBUDSV SAVING "      ZETASRF  1" ON UNIT170 AT TIME STEP 42, STRESS PERIOD    1


                      VOLUMETRIC SWI ZONE BUDGET FOR ENTIRE MODEL
                     AT END OF TIME STEP   42 IN STRESS PERIOD   1
                                      ZONE     1
  -----------------------------------------------------------------------------------

        CUMULATIVE VOLUMES      L**3       RATES FOR THIS TIME STEP      L**3/T
        ------------------                 ------------------------

              IN:                                      IN:
              ---                                      ---
             BOUNDARIES =   425132832.0000            BOUNDARIES =           0.1607
          CONSTANT HEAD =           0.0000         CONSTANT HEAD =           0.0000
            ZONE CHANGE =    82637448.0000           ZONE CHANGE =       4.2079E-04
       ZONE CHG TIP/TOE =     3736623.0000      ZONE CHG TIP/TOE =           0.0000
            ZONE MIXING =           0.0000           ZONE MIXING =           0.0000

               TOTAL IN =   511506912.0000              TOTAL IN =           0.1612

             OUT:                                     OUT:
             ----                                     ----
             BOUNDARIES =   397581216.0000            BOUNDARIES =           0.1603
          CONSTANT HEAD =           0.0000         CONSTANT HEAD =           0.0000
            ZONE CHANGE =    22530912.0000           ZONE CHANGE =       8.1319E-04
       ZONE CHG TIP/TOE =     3389746.2500      ZONE CHG TIP/TOE =           0.0000
            ZONE MIXING =           0.0000           ZONE MIXING =           0.0000

              TOTAL OUT =   423501888.0000             TOTAL OUT =           0.1611

               IN - OUT =    88005024.0000              IN - OUT =       2.1726E-05

    PERCENT DISCREPANCY =          18.82     PERCENT DISCREPANCY =           0.01



                      VOLUMETRIC SWI ZONE BUDGET FOR ENTIRE MODEL
                     AT END OF TIME STEP   42 IN STRESS PERIOD   1
                                      ZONE     2
  -----------------------------------------------------------------------------------

        CUMULATIVE VOLUMES      L**3       RATES FOR THIS TIME STEP      L**3/T
        ------------------                 ------------------------

              IN:                                      IN:
              ---                                      ---
             BOUNDARIES =           0.0000            BOUNDARIES =           0.0000
          CONSTANT HEAD =           0.0000         CONSTANT HEAD =           0.0000
            ZONE CHANGE =    19342324.0000           ZONE CHANGE =       8.1299E-04
       ZONE CHG TIP/TOE =     3389746.2500      ZONE CHG TIP/TOE =           0.0000
            ZONE MIXING =           0.0000           ZONE MIXING =           0.0000

               TOTAL IN =    22732070.0000              TOTAL IN =       8.1299E-04

             OUT:                                     OUT:
             ----                                     ----
             BOUNDARIES =    27563922.0000            BOUNDARIES =       4.1564E-04
          CONSTANT HEAD =           0.0000         CONSTANT HEAD =           0.0000
            ZONE CHANGE =     2029692.2500           ZONE CHANGE =       3.9748E-04
       ZONE CHG TIP/TOE =     1424051.0000      ZONE CHG TIP/TOE =           0.0000
            ZONE MIXING =           0.0000           ZONE MIXING =           0.0000

              TOTAL OUT =    31017666.0000             TOTAL OUT =       8.1311E-04

               IN - OUT =    -8285596.0000              IN - OUT =      -1.2660E-07

    PERCENT DISCREPANCY =         -30.83     PERCENT DISCREPANCY =          -0.02


 HEAD WILL BE SAVED ON UNIT   37 AT END OF TIME STEP   42, STRESS PERIOD    1

 DRAWDOWN WILL BE SAVED ON UNIT   38 AT END OF TIME STEP   42, STRESS PERIOD    1
1
  VOLUMETRIC BUDGET FOR ENTIRE MODEL AT END OF TIME STEP   42, STRESS PERIOD   1
  ------------------------------------------------------------------------------

     CUMULATIVE VOLUMES      L**3       RATES FOR THIS TIME STEP      L**3/T
     ------------------                 ------------------------

           IN:                                      IN:
           ---                                      ---
             STORAGE =           0.0000               STORAGE =           0.0000
       CONSTANT HEAD =           0.0000         CONSTANT HEAD =           0.0000
               WELLS =           0.0000                 WELLS =           0.0000
       RIVER LEAKAGE =    92571312.0000         RIVER LEAKAGE =       3.5046E-02
                  ET =           0.0000                    ET =           0.0000
     HEAD DEP BOUNDS =           0.0000       HEAD DEP BOUNDS =           0.0000
            RECHARGE =   353363008.0000              RECHARGE =           0.1334
          SWIADDTOCH =           0.0000            SWIADDTOCH =           0.0000

            TOTAL IN =   445934336.0000              TOTAL IN =           0.1684

          OUT:                                     OUT:
          ----                                     ----
             STORAGE =           0.0000               STORAGE =           0.0000
       CONSTANT HEAD =           0.0000         CONSTANT HEAD =           0.0000
               WELLS =           0.0000                 WELLS =           0.0000
       RIVER LEAKAGE =    18153484.0000         RIVER LEAKAGE =       6.6705E-03
                  ET =   139203840.0000                    ET =       5.1589E-02
     HEAD DEP BOUNDS =   288589024.0000       HEAD DEP BOUNDS =           0.1102
            RECHARGE =           0.0000              RECHARGE =           0.0000
          SWIADDTOCH =           0.0000            SWIADDTOCH =           0.0000

           TOTAL OUT =   445946368.0000             TOTAL OUT =           0.1684

            IN - OUT =      -12032.0000              IN - OUT =      -1.5199E-06

 PERCENT DISCREPANCY =          -0.00     PERCENT DISCREPANCY =          -0.00






         TIME SUMMARY AT END OF TIME STEP   42 IN STRESS PERIOD    1
                    SECONDS     MINUTES      HOURS       DAYS        YEARS
                    -----------------------------------------------------------
   TIME STEP LENGTH 6.30720E+07 1.05120E+06  17520.      730.00      1.9986    
 STRESS PERIOD TIME 2.64902E+09 4.41504E+07 7.35840E+05  30660.      83.943    
         TOTAL TIME 2.64902E+09 4.41504E+07 7.35840E+05  30660.      83.943    
1
 
 SOLVING FOR HEAD 
     3 CALLS TO PCG ROUTINE FOR TIME STEP  43 IN STRESS PERIOD    1
    17 TOTAL ITERATIONS

 MAXIMUM HEAD CHANGE FOR EACH ITERATION (1 INDICATES THE FIRST INNER ITERATION):

    HEAD CHANGE    HEAD CHANGE    HEAD CHANGE    HEAD CHANGE    HEAD CHANGE 
   LAYER,ROW,COL  LAYER,ROW,COL  LAYER,ROW,COL  LAYER,ROW,COL  LAYER,ROW,COL
 ---------------------------------------------------------------------------
  1  0.8666E-01  0 -0.1340E-01  0  0.3738E-01  0 -0.1124      0  0.9104E-01
   (  1, 27,  3)  (  2, 59, 34)  (  2, 59, 34)  (  2, 59, 34)  (  2, 59, 34)
  0 -0.6872E-02  0 -0.2260E-02  0  0.2503E-02  0  0.2350E-02  0 -0.1862E-02
   (  2, 59, 34)  (  2,  5, 31)  (  2,  5, 31)  (  2,  3, 32)  (  2,  3, 32)
  0  0.5369E-03  1 -0.2212E-02  0  0.2578E-02  0 -0.2130E-02  0  0.1652E-02
   (  2,  3, 32)  (  2, 59, 34)  (  2, 59, 34)  (  2, 59, 34)  (  2, 59, 34)
  0 -0.4553E-03  1  0.2178E-03
   (  2,  3, 32)  (  2,  3, 32)

 MAXIMUM RESIDUAL FOR EACH ITERATION (1 INDICATES THE FIRST INNER ITERATION):

    RESIDUAL       RESIDUAL       RESIDUAL       RESIDUAL       RESIDUAL    
   LAYER,ROW,COL  LAYER,ROW,COL  LAYER,ROW,COL  LAYER,ROW,COL  LAYER,ROW,COL
 ---------------------------------------------------------------------------
  1 -0.1234E-03  0 -0.1190E-03  0 -0.8968E-04  0 -0.2921E-04  0 -0.2341E-04
   (  2, 26,  3)  (  2, 26,  3)  (  2, 26,  3)  (  2, 26,  3)  (  2, 26,  3)
  0  0.2148E-04  0  0.1147E-04  0  0.7234E-05  0  0.4237E-05  0 -0.3257E-05
   (  2, 26,  4)  (  2, 26,  4)  (  2, 26,  4)  (  2, 26,  4)  (  2, 25,  4)
  0 -0.2071E-05  1 -0.1858E-05  0 -0.1735E-05  0 -0.1568E-05  0 -0.1166E-05
   (  2, 25,  4)  (  2, 25,  4)  (  2, 25,  4)  (  2, 25,  4)  (  1, 26,  4)
  0 -0.8045E-06  1 -0.7566E-06
   (  1, 26,  4)  (  1, 26,  4)



 OUTPUT CONTROL FOR STRESS PERIOD    1   TIME STEP   43
    SAVE HEAD FOR ALL LAYERS
    SAVE DRAWDOWN FOR ALL LAYERS
    SAVE BUDGET
    PRINT BUDGET
 UBDSV2 SAVING "   CONSTANT HEAD" ON UNIT   9 AT TIME STEP 43, STRESS PERIOD   1
 UBDSV1 SAVING "FLOW RIGHT FACE " ON UNIT   9 AT TIME STEP 43, STRESS PERIOD   1
 UBDSV1 SAVING "FLOW FRONT FACE " ON UNIT   9 AT TIME STEP 43, STRESS PERIOD   1
 UBDSV1 SAVING "FLOW LOWER FACE " ON UNIT   9 AT TIME STEP 43, STRESS PERIOD   1
 UBDSV4 SAVING "           WELLS" ON UNIT   9 AT TIME STEP 43, STRESS PERIOD   1
 UBDSV4 SAVING "   RIVER LEAKAGE" ON UNIT   9 AT TIME STEP 43, STRESS PERIOD   1
 UBDSV3 SAVING "              ET" ON UNIT   9 AT TIME STEP 43, STRESS PERIOD   1
 UBDSV4 SAVING " HEAD DEP BOUNDS" ON UNIT   9 AT TIME STEP 43, STRESS PERIOD   1
 UBDSV3 SAVING "        RECHARGE" ON UNIT   9 AT TIME STEP 43, STRESS PERIOD   1
 SOLVING FOR ZETA FOR LAYER     1 ZONE     2
     2 CALLS TO PCG ROUTINE FOR TIME STEP  43 IN STRESS PERIOD    1
     5 TOTAL ITERATIONS

 MAXIMUM HEAD CHANGE FOR EACH ITERATION (1 INDICATES THE FIRST INNER ITERATION):

    HEAD CHANGE    HEAD CHANGE    HEAD CHANGE    HEAD CHANGE    HEAD CHANGE 
   LAYER,ROW,COL  LAYER,ROW,COL  LAYER,ROW,COL  LAYER,ROW,COL  LAYER,ROW,COL
 ---------------------------------------------------------------------------
  1  -2.837      0 -0.1844      0  0.3520E-02  0 -0.1516E-03  1 -0.6751E-05
   (  1, 30,  3)  (  1, 29,  4)  (  1, 27,  3)  (  1, 30,  4)  (  1, 31,  3)

 MAXIMUM RESIDUAL FOR EACH ITERATION (1 INDICATES THE FIRST INNER ITERATION):

    RESIDUAL       RESIDUAL       RESIDUAL       RESIDUAL       RESIDUAL    
   LAYER,ROW,COL  LAYER,ROW,COL  LAYER,ROW,COL  LAYER,ROW,COL  LAYER,ROW,COL
 ---------------------------------------------------------------------------
  1  0.1962E-04  0  0.3849E-06  0  0.1582E-07  0  0.8724E-09  1  0.4378E-10
   (  1, 29,  4)  (  1, 30,  3)  (  1, 30,  4)  (  1, 31,  3)  (  1, 30,  4)


 SOLVING FOR ZETA FOR LAYER     2 ZONE     2
     2 CALLS TO PCG ROUTINE FOR TIME STEP  43 IN STRESS PERIOD    1
     5 TOTAL ITERATIONS

 MAXIMUM HEAD CHANGE FOR EACH ITERATION (1 INDICATES THE FIRST INNER ITERATION):

    HEAD CHANGE    HEAD CHANGE    HEAD CHANGE    HEAD CHANGE    HEAD CHANGE 
   LAYER,ROW,COL  LAYER,ROW,COL  LAYER,ROW,COL  LAYER,ROW,COL  LAYER,ROW,COL
 ---------------------------------------------------------------------------
  1  0.2525      0 -0.1649E-01  0 -0.1126E-02  0  0.4026E-10  1  0.7203E-08
   (  1, 27,  5)  (  1, 33,  5)  (  1, 34,  4)  (  1, 29,  5)  (  1, 34,  4)

 MAXIMUM RESIDUAL FOR EACH ITERATION (1 INDICATES THE FIRST INNER ITERATION):

    RESIDUAL       RESIDUAL       RESIDUAL       RESIDUAL       RESIDUAL    
   LAYER,ROW,COL  LAYER,ROW,COL  LAYER,ROW,COL  LAYER,ROW,COL  LAYER,ROW,COL
 ---------------------------------------------------------------------------
  1  0.1603E-05  0  0.1281E-06  0 -0.4438E-14  0  0.5339E-17  1 -0.6079E-13
   (  1, 33,  5)  (  1, 34,  4)  (  1, 29,  5)  (  1, 34,  4)  (  1, 33,  5)


 UBUDSV SAVING "      ZETASRF  1" ON UNIT170 AT TIME STEP 43, STRESS PERIOD    1


                      VOLUMETRIC SWI ZONE BUDGET FOR ENTIRE MODEL
                     AT END OF TIME STEP   43 IN STRESS PERIOD   1
                                      ZONE     1
  -----------------------------------------------------------------------------------

        CUMULATIVE VOLUMES      L**3       RATES FOR THIS TIME STEP      L**3/T
        ------------------                 ------------------------

              IN:                                      IN:
              ---                                      ---
             BOUNDARIES =   435271744.0000            BOUNDARIES =           0.1608
          CONSTANT HEAD =           0.0000         CONSTANT HEAD =           0.0000
            ZONE CHANGE =    82654464.0000           ZONE CHANGE =       2.6976E-04
       ZONE CHG TIP/TOE =     3736623.0000      ZONE CHG TIP/TOE =           0.0000
            ZONE MIXING =           0.0000           ZONE MIXING =           0.0000

               TOTAL IN =   521662848.0000              TOTAL IN =           0.1610

             OUT:                                     OUT:
             ----                                     ----
             BOUNDARIES =   407695904.0000            BOUNDARIES =           0.1604
          CONSTANT HEAD =           0.0000         CONSTANT HEAD =           0.0000
            ZONE CHANGE =    22570930.0000           ZONE CHANGE =       6.3449E-04
       ZONE CHG TIP/TOE =     3389746.2500      ZONE CHG TIP/TOE =           0.0000
            ZONE MIXING =           0.0000           ZONE MIXING =           0.0000

              TOTAL OUT =   433656576.0000             TOTAL OUT =           0.1610

               IN - OUT =    88006272.0000              IN - OUT =       1.9208E-05

    PERCENT DISCREPANCY =          18.42     PERCENT DISCREPANCY =           0.01



                      VOLUMETRIC SWI ZONE BUDGET FOR ENTIRE MODEL
                     AT END OF TIME STEP   43 IN STRESS PERIOD   1
                                      ZONE     2
  -----------------------------------------------------------------------------------

        CUMULATIVE VOLUMES      L**3       RATES FOR THIS TIME STEP      L**3/T
        ------------------                 ------------------------

              IN:                                      IN:
              ---                                      ---
             BOUNDARIES =           0.0000            BOUNDARIES =           0.0000
          CONSTANT HEAD =           0.0000         CONSTANT HEAD =           0.0000
            ZONE CHANGE =    19382328.0000           ZONE CHANGE =       6.3427E-04
       ZONE CHG TIP/TOE =     3389746.2500      ZONE CHG TIP/TOE =           0.0000
            ZONE MIXING =           0.0000           ZONE MIXING =           0.0000

               TOTAL IN =    22772074.0000              TOTAL IN =       6.3427E-04

             OUT:                                     OUT:
             ----                                     ----
             BOUNDARIES =    27588222.0000            BOUNDARIES =       3.8528E-04
          CONSTANT HEAD =           0.0000         CONSTANT HEAD =           0.0000
            ZONE CHANGE =     2045402.8750           ZONE CHANGE =       2.4909E-04
       ZONE CHG TIP/TOE =     1424051.0000      ZONE CHG TIP/TOE =           0.0000
            ZONE MIXING =           0.0000           ZONE MIXING =           0.0000

              TOTAL OUT =    31057676.0000             TOTAL OUT =       6.3437E-04

               IN - OUT =    -8285602.0000              IN - OUT =      -9.8953E-08

    PERCENT DISCREPANCY =         -30.78     PERCENT DISCREPANCY =          -0.02


 HEAD WILL BE SAVED ON UNIT   37 AT END OF TIME STEP   43, STRESS PERIOD    1

 DRAWDOWN WILL BE SAVED ON UNIT   38 AT END OF TIME STEP   43, STRESS PERIOD    1
1
  VOLUMETRIC BUDGET FOR ENTIRE MODEL AT END OF TIME STEP   43, STRESS PERIOD   1
  ------------------------------------------------------------------------------

     CUMULATIVE VOLUMES      L**3       RATES FOR THIS TIME STEP      L**3/T
     ------------------                 ------------------------

           IN:                                      IN:
           ---                                      ---
             STORAGE =           0.0000               STORAGE =           0.0000
       CONSTANT HEAD =           0.0000         CONSTANT HEAD =           0.0000
               WELLS =           0.0000                 WELLS =           0.0000
       RIVER LEAKAGE =    94781840.0000         RIVER LEAKAGE =       3.5048E-02
                  ET =           0.0000                    ET =           0.0000
     HEAD DEP BOUNDS =           0.0000       HEAD DEP BOUNDS =           0.0000
            RECHARGE =   361776416.0000              RECHARGE =           0.1334
          SWIADDTOCH =           0.0000            SWIADDTOCH =           0.0000

            TOTAL IN =   456558272.0000              TOTAL IN =           0.1684

          OUT:                                     OUT:
          ----                                     ----
             STORAGE =           0.0000               STORAGE =           0.0000
       CONSTANT HEAD =           0.0000         CONSTANT HEAD =           0.0000
               WELLS =           0.0000                 WELLS =           0.0000
       RIVER LEAKAGE =    18573934.0000         RIVER LEAKAGE =       6.6662E-03
                  ET =   142457024.0000                    ET =       5.1579E-02
     HEAD DEP BOUNDS =   295539392.0000       HEAD DEP BOUNDS =           0.1102
            RECHARGE =           0.0000              RECHARGE =           0.0000
          SWIADDTOCH =           0.0000            SWIADDTOCH =           0.0000

           TOTAL OUT =   456570368.0000             TOTAL OUT =           0.1684

            IN - OUT =      -12096.0000              IN - OUT =      -1.3411E-06

 PERCENT DISCREPANCY =          -0.00     PERCENT DISCREPANCY =          -0.00






         TIME SUMMARY AT END OF TIME STEP   43 IN STRESS PERIOD    1
                    SECONDS     MINUTES      HOURS       DAYS        YEARS
                    -----------------------------------------------------------
   TIME STEP LENGTH 6.30720E+07 1.05120E+06  17520.      730.00      1.9986    
 STRESS PERIOD TIME 2.71210E+09 4.52016E+07 7.53360E+05  31390.      85.941    
         TOTAL TIME 2.71210E+09 4.52016E+07 7.53360E+05  31390.      85.941    
1
 
 SOLVING FOR HEAD 
     2 CALLS TO PCG ROUTINE FOR TIME STEP  44 IN STRESS PERIOD    1
    10 TOTAL ITERATIONS

 MAXIMUM HEAD CHANGE FOR EACH ITERATION (1 INDICATES THE FIRST INNER ITERATION):

    HEAD CHANGE    HEAD CHANGE    HEAD CHANGE    HEAD CHANGE    HEAD CHANGE 
   LAYER,ROW,COL  LAYER,ROW,COL  LAYER,ROW,COL  LAYER,ROW,COL  LAYER,ROW,COL
 ---------------------------------------------------------------------------
  1  0.5499E-01  0  0.4881E-01  0 -0.1151      0  0.9560E-01  0 -0.3249E-01
   (  1, 27,  3)  (  2, 59, 34)  (  2, 59, 34)  (  2, 59, 34)  (  2, 59, 34)
  0  0.7714E-02  0  0.1369E-02  0 -0.1586E-02  0  0.7626E-03  1 -0.4866E-03
   (  2, 59, 34)  (  2,  3, 32)  (  2,  5, 31)  (  2,  5, 31)  (  2, 52, 26)

 MAXIMUM RESIDUAL FOR EACH ITERATION (1 INDICATES THE FIRST INNER ITERATION):

    RESIDUAL       RESIDUAL       RESIDUAL       RESIDUAL       RESIDUAL    
   LAYER,ROW,COL  LAYER,ROW,COL  LAYER,ROW,COL  LAYER,ROW,COL  LAYER,ROW,COL
 ---------------------------------------------------------------------------
  1 -0.8615E-04  0 -0.7519E-04  0 -0.5380E-04  0 -0.2082E-04  0 -0.1557E-04
   (  2, 26,  3)  (  2, 26,  3)  (  2, 26,  3)  (  2, 26,  3)  (  2, 26,  3)
  0  0.1367E-04  0  0.6014E-05  0  0.4091E-05  0  0.2705E-05  1  0.2329E-05
   (  2, 26,  4)  (  2, 26,  4)  (  2, 26,  4)  (  2, 26,  4)  (  2, 26,  4)



 OUTPUT CONTROL FOR STRESS PERIOD    1   TIME STEP   44
    SAVE HEAD FOR ALL LAYERS
    SAVE DRAWDOWN FOR ALL LAYERS
    SAVE BUDGET
    PRINT BUDGET
 UBDSV2 SAVING "   CONSTANT HEAD" ON UNIT   9 AT TIME STEP 44, STRESS PERIOD   1
 UBDSV1 SAVING "FLOW RIGHT FACE " ON UNIT   9 AT TIME STEP 44, STRESS PERIOD   1
 UBDSV1 SAVING "FLOW FRONT FACE " ON UNIT   9 AT TIME STEP 44, STRESS PERIOD   1
 UBDSV1 SAVING "FLOW LOWER FACE " ON UNIT   9 AT TIME STEP 44, STRESS PERIOD   1
 UBDSV4 SAVING "           WELLS" ON UNIT   9 AT TIME STEP 44, STRESS PERIOD   1
 UBDSV4 SAVING "   RIVER LEAKAGE" ON UNIT   9 AT TIME STEP 44, STRESS PERIOD   1
 UBDSV3 SAVING "              ET" ON UNIT   9 AT TIME STEP 44, STRESS PERIOD   1
 UBDSV4 SAVING " HEAD DEP BOUNDS" ON UNIT   9 AT TIME STEP 44, STRESS PERIOD   1
 UBDSV3 SAVING "        RECHARGE" ON UNIT   9 AT TIME STEP 44, STRESS PERIOD   1
 SOLVING FOR ZETA FOR LAYER     1 ZONE     2
     2 CALLS TO PCG ROUTINE FOR TIME STEP  44 IN STRESS PERIOD    1
     5 TOTAL ITERATIONS

 MAXIMUM HEAD CHANGE FOR EACH ITERATION (1 INDICATES THE FIRST INNER ITERATION):

    HEAD CHANGE    HEAD CHANGE    HEAD CHANGE    HEAD CHANGE    HEAD CHANGE 
   LAYER,ROW,COL  LAYER,ROW,COL  LAYER,ROW,COL  LAYER,ROW,COL  LAYER,ROW,COL
 ---------------------------------------------------------------------------
  1  -2.067      0 -0.1316      0  0.2578E-02  0 -0.1049E-03  1 -0.4117E-05
   (  1, 30,  3)  (  1, 29,  4)  (  1, 27,  3)  (  1, 30,  4)  (  1, 31,  3)

 MAXIMUM RESIDUAL FOR EACH ITERATION (1 INDICATES THE FIRST INNER ITERATION):

    RESIDUAL       RESIDUAL       RESIDUAL       RESIDUAL       RESIDUAL    
   LAYER,ROW,COL  LAYER,ROW,COL  LAYER,ROW,COL  LAYER,ROW,COL  LAYER,ROW,COL
 ---------------------------------------------------------------------------
  1  0.1398E-04  0  0.2348E-06  0  0.1103E-07  0  0.5302E-09  1  0.2522E-10
   (  1, 29,  4)  (  1, 30,  3)  (  1, 30,  4)  (  1, 31,  3)  (  1, 30,  4)


 SOLVING FOR ZETA FOR LAYER     2 ZONE     2
     2 CALLS TO PCG ROUTINE FOR TIME STEP  44 IN STRESS PERIOD    1
     4 TOTAL ITERATIONS

 MAXIMUM HEAD CHANGE FOR EACH ITERATION (1 INDICATES THE FIRST INNER ITERATION):

    HEAD CHANGE    HEAD CHANGE    HEAD CHANGE    HEAD CHANGE    HEAD CHANGE 
   LAYER,ROW,COL  LAYER,ROW,COL  LAYER,ROW,COL  LAYER,ROW,COL  LAYER,ROW,COL
 ---------------------------------------------------------------------------
  1 -0.1895      0 -0.1475E-01  0 -0.9574E-03  1 -0.6651E-08
   (  1, 34,  4)  (  1, 33,  5)  (  1, 34,  4)  (  1, 34,  4)

 MAXIMUM RESIDUAL FOR EACH ITERATION (1 INDICATES THE FIRST INNER ITERATION):

    RESIDUAL       RESIDUAL       RESIDUAL       RESIDUAL       RESIDUAL    
   LAYER,ROW,COL  LAYER,ROW,COL  LAYER,ROW,COL  LAYER,ROW,COL  LAYER,ROW,COL
 ---------------------------------------------------------------------------
  1  0.1438E-05  0  0.1100E-06  0  0.4078E-14  1  0.5702E-13
   (  1, 33,  5)  (  1, 34,  4)  (  1, 29,  5)  (  1, 33,  5)


 UBUDSV SAVING "      ZETASRF  1" ON UNIT170 AT TIME STEP 44, STRESS PERIOD    1


                      VOLUMETRIC SWI ZONE BUDGET FOR ENTIRE MODEL
                     AT END OF TIME STEP   44 IN STRESS PERIOD   1
                                      ZONE     1
  -----------------------------------------------------------------------------------

        CUMULATIVE VOLUMES      L**3       RATES FOR THIS TIME STEP      L**3/T
        ------------------                 ------------------------

              IN:                                      IN:
              ---                                      ---
             BOUNDARIES =   445410784.0000            BOUNDARIES =           0.1608
          CONSTANT HEAD =           0.0000         CONSTANT HEAD =           0.0000
            ZONE CHANGE =    82664408.0000           ZONE CHANGE =       1.5765E-04
       ZONE CHG TIP/TOE =     3736623.0000      ZONE CHG TIP/TOE =           0.0000
            ZONE MIXING =           0.0000           ZONE MIXING =           0.0000

               TOTAL IN =   531811808.0000              TOTAL IN =           0.1609

             OUT:                                     OUT:
             ----                                     ----
             BOUNDARIES =   417812416.0000            BOUNDARIES =           0.1604
          CONSTANT HEAD =           0.0000         CONSTANT HEAD =           0.0000
            ZONE CHANGE =    22602758.0000           ZONE CHANGE =       5.0462E-04
       ZONE CHG TIP/TOE =     3389746.2500      ZONE CHG TIP/TOE =           0.0000
            ZONE MIXING =           0.0000           ZONE MIXING =           0.0000

              TOTAL OUT =   443804928.0000             TOTAL OUT =           0.1609

               IN - OUT =    88006880.0000              IN - OUT =       9.9838E-06

    PERCENT DISCREPANCY =          18.04     PERCENT DISCREPANCY =           0.01



                      VOLUMETRIC SWI ZONE BUDGET FOR ENTIRE MODEL
                     AT END OF TIME STEP   44 IN STRESS PERIOD   1
                                      ZONE     2
  -----------------------------------------------------------------------------------

        CUMULATIVE VOLUMES      L**3       RATES FOR THIS TIME STEP      L**3/T
        ------------------                 ------------------------

              IN:                                      IN:
              ---                                      ---
             BOUNDARIES =           0.0000            BOUNDARIES =           0.0000
          CONSTANT HEAD =           0.0000         CONSTANT HEAD =           0.0000
            ZONE CHANGE =    19414136.0000           ZONE CHANGE =       5.0431E-04
       ZONE CHG TIP/TOE =     3389746.2500      ZONE CHG TIP/TOE =           0.0000
            ZONE MIXING =           0.0000           ZONE MIXING =           0.0000

               TOTAL IN =    22803882.0000              TOTAL IN =       5.0431E-04

             OUT:                                     OUT:
             ----                                     ----
             BOUNDARIES =    27610846.0000            BOUNDARIES =       3.5869E-04
          CONSTANT HEAD =           0.0000         CONSTANT HEAD =           0.0000
            ZONE CHANGE =     2054415.6250           ZONE CHANGE =       1.4290E-04
       ZONE CHG TIP/TOE =     1424051.0000      ZONE CHG TIP/TOE =           0.0000
            ZONE MIXING =           0.0000           ZONE MIXING =           0.0000

              TOTAL OUT =    31089312.0000             TOTAL OUT =       5.0159E-04

               IN - OUT =    -8285430.0000              IN - OUT =       2.7253E-06

    PERCENT DISCREPANCY =         -30.75     PERCENT DISCREPANCY =           0.54


 HEAD WILL BE SAVED ON UNIT   37 AT END OF TIME STEP   44, STRESS PERIOD    1

 DRAWDOWN WILL BE SAVED ON UNIT   38 AT END OF TIME STEP   44, STRESS PERIOD    1
1
  VOLUMETRIC BUDGET FOR ENTIRE MODEL AT END OF TIME STEP   44, STRESS PERIOD   1
  ------------------------------------------------------------------------------

     CUMULATIVE VOLUMES      L**3       RATES FOR THIS TIME STEP      L**3/T
     ------------------                 ------------------------

           IN:                                      IN:
           ---                                      ---
             STORAGE =           0.0000               STORAGE =           0.0000
       CONSTANT HEAD =           0.0000         CONSTANT HEAD =           0.0000
               WELLS =           0.0000                 WELLS =           0.0000
       RIVER LEAKAGE =    96992456.0000         RIVER LEAKAGE =       3.5049E-02
                  ET =           0.0000                    ET =           0.0000
     HEAD DEP BOUNDS =           0.0000       HEAD DEP BOUNDS =           0.0000
            RECHARGE =   370189824.0000              RECHARGE =           0.1334
          SWIADDTOCH =           0.0000            SWIADDTOCH =           0.0000

            TOTAL IN =   467182272.0000              TOTAL IN =           0.1684

          OUT:                                     OUT:
          ----                                     ----
             STORAGE =           0.0000               STORAGE =           0.0000
       CONSTANT HEAD =           0.0000         CONSTANT HEAD =           0.0000
               WELLS =           0.0000                 WELLS =           0.0000
       RIVER LEAKAGE =    18994176.0000         RIVER LEAKAGE =       6.6629E-03
                  ET =   145709728.0000                    ET =       5.1571E-02
     HEAD DEP BOUNDS =   302490560.0000       HEAD DEP BOUNDS =           0.1102
            RECHARGE =           0.0000              RECHARGE =           0.0000
          SWIADDTOCH =           0.0000            SWIADDTOCH =           0.0000

           TOTAL OUT =   467194464.0000             TOTAL OUT =           0.1684

            IN - OUT =      -12192.0000              IN - OUT =      -1.7434E-06

 PERCENT DISCREPANCY =          -0.00     PERCENT DISCREPANCY =          -0.00






         TIME SUMMARY AT END OF TIME STEP   44 IN STRESS PERIOD    1
                    SECONDS     MINUTES      HOURS       DAYS        YEARS
                    -----------------------------------------------------------
   TIME STEP LENGTH 6.30720E+07 1.05120E+06  17520.      730.00      1.9986    
 STRESS PERIOD TIME 2.77517E+09 4.62528E+07 7.70880E+05  32120.      87.940    
         TOTAL TIME 2.77517E+09 4.62528E+07 7.70880E+05  32120.      87.940    
1
 
 SOLVING FOR HEAD 
     2 CALLS TO PCG ROUTINE FOR TIME STEP  45 IN STRESS PERIOD    1
    14 TOTAL ITERATIONS

 MAXIMUM HEAD CHANGE FOR EACH ITERATION (1 INDICATES THE FIRST INNER ITERATION):

    HEAD CHANGE    HEAD CHANGE    HEAD CHANGE    HEAD CHANGE    HEAD CHANGE 
   LAYER,ROW,COL  LAYER,ROW,COL  LAYER,ROW,COL  LAYER,ROW,COL  LAYER,ROW,COL
 ---------------------------------------------------------------------------
  1  0.3311E-01  0 -0.6086E-01  0  0.3340E-01  0  0.5636E-02  0  0.5342E-02
   (  1, 27,  3)  (  2, 59, 34)  (  2, 59, 34)  (  2,  5, 31)  (  2, 19, 52)
  0  0.2529E-02  0  0.1661E-02  0 -0.1523E-02  0 -0.2102E-02  0  0.2405E-02
   (  2, 52, 26)  (  2,  3, 32)  (  2, 58, 31)  (  2,  3, 32)  (  2, 58, 31)
  0 -0.3602E-02  0  0.3204E-02  0  0.5307E-03  1 -0.2251E-03
   (  2, 59, 34)  (  2, 59, 34)  (  2, 58, 31)  (  2, 58, 31)

 MAXIMUM RESIDUAL FOR EACH ITERATION (1 INDICATES THE FIRST INNER ITERATION):

    RESIDUAL       RESIDUAL       RESIDUAL       RESIDUAL       RESIDUAL    
   LAYER,ROW,COL  LAYER,ROW,COL  LAYER,ROW,COL  LAYER,ROW,COL  LAYER,ROW,COL
 ---------------------------------------------------------------------------
  1 -0.5777E-04  0 -0.5649E-04  0 -0.4496E-04  0 -0.1572E-04  0 -0.1048E-04
   (  2, 29,  3)  (  2, 29,  3)  (  2, 29,  3)  (  2, 26,  3)  (  2, 26,  3)
  0 -0.8326E-05  0 -0.7166E-05  0 -0.4092E-05  0  0.2645E-05  0  0.1857E-05
   (  1, 29,  4)  (  1, 29,  4)  (  1, 29,  4)  (  2, 26,  4)  (  2, 26,  4)
  0  0.1574E-05  0  0.1228E-05  0 -0.4248E-06  1 -0.3787E-06
   (  2, 26,  4)  (  2, 26,  4)  (  1, 29,  4)  (  1, 29,  4)



 OUTPUT CONTROL FOR STRESS PERIOD    1   TIME STEP   45
    SAVE HEAD FOR ALL LAYERS
    SAVE DRAWDOWN FOR ALL LAYERS
    SAVE BUDGET
    PRINT BUDGET
 UBDSV2 SAVING "   CONSTANT HEAD" ON UNIT   9 AT TIME STEP 45, STRESS PERIOD   1
 UBDSV1 SAVING "FLOW RIGHT FACE " ON UNIT   9 AT TIME STEP 45, STRESS PERIOD   1
 UBDSV1 SAVING "FLOW FRONT FACE " ON UNIT   9 AT TIME STEP 45, STRESS PERIOD   1
 UBDSV1 SAVING "FLOW LOWER FACE " ON UNIT   9 AT TIME STEP 45, STRESS PERIOD   1
 UBDSV4 SAVING "           WELLS" ON UNIT   9 AT TIME STEP 45, STRESS PERIOD   1
 UBDSV4 SAVING "   RIVER LEAKAGE" ON UNIT   9 AT TIME STEP 45, STRESS PERIOD   1
 UBDSV3 SAVING "              ET" ON UNIT   9 AT TIME STEP 45, STRESS PERIOD   1
 UBDSV4 SAVING " HEAD DEP BOUNDS" ON UNIT   9 AT TIME STEP 45, STRESS PERIOD   1
 UBDSV3 SAVING "        RECHARGE" ON UNIT   9 AT TIME STEP 45, STRESS PERIOD   1
 SOLVING FOR ZETA FOR LAYER     1 ZONE     2
     2 CALLS TO PCG ROUTINE FOR TIME STEP  45 IN STRESS PERIOD    1
     5 TOTAL ITERATIONS

 MAXIMUM HEAD CHANGE FOR EACH ITERATION (1 INDICATES THE FIRST INNER ITERATION):

    HEAD CHANGE    HEAD CHANGE    HEAD CHANGE    HEAD CHANGE    HEAD CHANGE 
   LAYER,ROW,COL  LAYER,ROW,COL  LAYER,ROW,COL  LAYER,ROW,COL  LAYER,ROW,COL
 ---------------------------------------------------------------------------
  1  -1.460      0 -0.9159E-01  0  0.1831E-02  0 -0.6828E-04  1 -0.2377E-05
   (  1, 30,  3)  (  1, 29,  4)  (  1, 27,  3)  (  1, 30,  4)  (  1, 31,  3)

 MAXIMUM RESIDUAL FOR EACH ITERATION (1 INDICATES THE FIRST INNER ITERATION):

    RESIDUAL       RESIDUAL       RESIDUAL       RESIDUAL       RESIDUAL    
   LAYER,ROW,COL  LAYER,ROW,COL  LAYER,ROW,COL  LAYER,ROW,COL  LAYER,ROW,COL
 ---------------------------------------------------------------------------
  1  0.9639E-05  0 -0.1617E-06  0  0.7225E-08  0  0.3073E-09  1  0.1378E-10
   (  1, 29,  4)  (  1, 27,  3)  (  1, 30,  4)  (  1, 31,  3)  (  1, 30,  4)


 SOLVING FOR ZETA FOR LAYER     2 ZONE     2
     2 CALLS TO PCG ROUTINE FOR TIME STEP  45 IN STRESS PERIOD    1
     4 TOTAL ITERATIONS

 MAXIMUM HEAD CHANGE FOR EACH ITERATION (1 INDICATES THE FIRST INNER ITERATION):

    HEAD CHANGE    HEAD CHANGE    HEAD CHANGE    HEAD CHANGE    HEAD CHANGE 
   LAYER,ROW,COL  LAYER,ROW,COL  LAYER,ROW,COL  LAYER,ROW,COL  LAYER,ROW,COL
 ---------------------------------------------------------------------------
  1 -0.1740      0 -0.1343E-01  0 -0.8207E-03  1  0.4774E-08
   (  1, 34,  4)  (  1, 33,  5)  (  1, 34,  4)  (  1,  5,  9)

 MAXIMUM RESIDUAL FOR EACH ITERATION (1 INDICATES THE FIRST INNER ITERATION):

    RESIDUAL       RESIDUAL       RESIDUAL       RESIDUAL       RESIDUAL    
   LAYER,ROW,COL  LAYER,ROW,COL  LAYER,ROW,COL  LAYER,ROW,COL  LAYER,ROW,COL
 ---------------------------------------------------------------------------
  1  0.1313E-05  0  0.9552E-07  0  0.2926E-14  1 -0.3335E-14
   (  1, 33,  5)  (  1, 34,  4)  (  1,  5,  8)  (  1, 34,  4)


 UBUDSV SAVING "      ZETASRF  1" ON UNIT170 AT TIME STEP 45, STRESS PERIOD    1


                      VOLUMETRIC SWI ZONE BUDGET FOR ENTIRE MODEL
                     AT END OF TIME STEP   45 IN STRESS PERIOD   1
                                      ZONE     1
  -----------------------------------------------------------------------------------

        CUMULATIVE VOLUMES      L**3       RATES FOR THIS TIME STEP      L**3/T
        ------------------                 ------------------------

              IN:                                      IN:
              ---                                      ---
             BOUNDARIES =   455549920.0000            BOUNDARIES =           0.1608
          CONSTANT HEAD =           0.0000         CONSTANT HEAD =           0.0000
            ZONE CHANGE =    82669936.0000           ZONE CHANGE =       8.7672E-05
       ZONE CHG TIP/TOE =     3736623.0000      ZONE CHG TIP/TOE =           0.0000
            ZONE MIXING =           0.0000           ZONE MIXING =           0.0000

               TOTAL IN =   541956480.0000              TOTAL IN =           0.1608

             OUT:                                     OUT:
             ----                                     ----
             BOUNDARIES =   427930432.0000            BOUNDARIES =           0.1604
          CONSTANT HEAD =           0.0000         CONSTANT HEAD =           0.0000
            ZONE CHANGE =    22628632.0000           ZONE CHANGE =       4.1023E-04
       ZONE CHG TIP/TOE =     3389746.2500      ZONE CHG TIP/TOE =           0.0000
            ZONE MIXING =           0.0000           ZONE MIXING =           0.0000

              TOTAL OUT =   453948800.0000             TOTAL OUT =           0.1608

               IN - OUT =    88007680.0000              IN - OUT =       1.2368E-05

    PERCENT DISCREPANCY =          17.67     PERCENT DISCREPANCY =           0.01



                      VOLUMETRIC SWI ZONE BUDGET FOR ENTIRE MODEL
                     AT END OF TIME STEP   45 IN STRESS PERIOD   1
                                      ZONE     2
  -----------------------------------------------------------------------------------

        CUMULATIVE VOLUMES      L**3       RATES FOR THIS TIME STEP      L**3/T
        ------------------                 ------------------------

              IN:                                      IN:
              ---                                      ---
             BOUNDARIES =           0.0000            BOUNDARIES =           0.0000
          CONSTANT HEAD =           0.0000         CONSTANT HEAD =           0.0000
            ZONE CHANGE =    19439988.0000           ZONE CHANGE =       4.0987E-04
       ZONE CHG TIP/TOE =     3389746.2500      ZONE CHG TIP/TOE =           0.0000
            ZONE MIXING =           0.0000           ZONE MIXING =           0.0000

               TOTAL IN =    22829734.0000              TOTAL IN =       4.0987E-04

             OUT:                                     OUT:
             ----                                     ----
             BOUNDARIES =    27632042.0000            BOUNDARIES =       3.3607E-04
          CONSTANT HEAD =           0.0000         CONSTANT HEAD =           0.0000
            ZONE CHANGE =     2059032.0000           ZONE CHANGE =       7.3191E-05
       ZONE CHG TIP/TOE =     1424051.0000      ZONE CHG TIP/TOE =           0.0000
            ZONE MIXING =           0.0000           ZONE MIXING =           0.0000

              TOTAL OUT =    31115124.0000             TOTAL OUT =       4.0926E-04

               IN - OUT =    -8285390.0000              IN - OUT =       6.1674E-07

    PERCENT DISCREPANCY =         -30.72     PERCENT DISCREPANCY =           0.15


 HEAD WILL BE SAVED ON UNIT   37 AT END OF TIME STEP   45, STRESS PERIOD    1

 DRAWDOWN WILL BE SAVED ON UNIT   38 AT END OF TIME STEP   45, STRESS PERIOD    1
1
  VOLUMETRIC BUDGET FOR ENTIRE MODEL AT END OF TIME STEP   45, STRESS PERIOD   1
  ------------------------------------------------------------------------------

     CUMULATIVE VOLUMES      L**3       RATES FOR THIS TIME STEP      L**3/T
     ------------------                 ------------------------

           IN:                                      IN:
           ---                                      ---
             STORAGE =           0.0000               STORAGE =           0.0000
       CONSTANT HEAD =           0.0000         CONSTANT HEAD =           0.0000
               WELLS =           0.0000                 WELLS =           0.0000
       RIVER LEAKAGE =    99203136.0000         RIVER LEAKAGE =       3.5050E-02
                  ET =           0.0000                    ET =           0.0000
     HEAD DEP BOUNDS =           0.0000       HEAD DEP BOUNDS =           0.0000
            RECHARGE =   378603232.0000              RECHARGE =           0.1334
          SWIADDTOCH =           0.0000            SWIADDTOCH =           0.0000

            TOTAL IN =   477806368.0000              TOTAL IN =           0.1684

          OUT:                                     OUT:
          ----                                     ----
             STORAGE =           0.0000               STORAGE =           0.0000
       CONSTANT HEAD =           0.0000         CONSTANT HEAD =           0.0000
               WELLS =           0.0000                 WELLS =           0.0000
       RIVER LEAKAGE =    19414258.0000         RIVER LEAKAGE =       6.6604E-03
                  ET =   148962112.0000                    ET =       5.1566E-02
     HEAD DEP BOUNDS =   309442272.0000       HEAD DEP BOUNDS =           0.1102
            RECHARGE =           0.0000              RECHARGE =           0.0000
          SWIADDTOCH =           0.0000            SWIADDTOCH =           0.0000

           TOTAL OUT =   477818624.0000             TOTAL OUT =           0.1684

            IN - OUT =      -12256.0000              IN - OUT =      -1.1325E-06

 PERCENT DISCREPANCY =          -0.00     PERCENT DISCREPANCY =          -0.00






         TIME SUMMARY AT END OF TIME STEP   45 IN STRESS PERIOD    1
                    SECONDS     MINUTES      HOURS       DAYS        YEARS
                    -----------------------------------------------------------
   TIME STEP LENGTH 6.30720E+07 1.05120E+06  17520.      730.00      1.9986    
 STRESS PERIOD TIME 2.83824E+09 4.73040E+07 7.88400E+05  32850.      89.938    
         TOTAL TIME 2.83824E+09 4.73040E+07 7.88400E+05  32850.      89.938    
1
 
 SOLVING FOR HEAD 
     2 CALLS TO PCG ROUTINE FOR TIME STEP  46 IN STRESS PERIOD    1
     8 TOTAL ITERATIONS

 MAXIMUM HEAD CHANGE FOR EACH ITERATION (1 INDICATES THE FIRST INNER ITERATION):

    HEAD CHANGE    HEAD CHANGE    HEAD CHANGE    HEAD CHANGE    HEAD CHANGE 
   LAYER,ROW,COL  LAYER,ROW,COL  LAYER,ROW,COL  LAYER,ROW,COL  LAYER,ROW,COL
 ---------------------------------------------------------------------------
  1  0.2088E-01  0  0.6058E-01  0 -0.6935E-01  0  0.1541E-01  0  0.6646E-02
   (  1, 30,  3)  (  2, 59, 34)  (  2, 59, 34)  (  2, 59, 34)  (  2, 58, 31)
  0  0.1139E-02  0 -0.9053E-03  1 -0.8568E-03
   (  2, 22, 49)  (  2, 22, 49)  (  2, 20, 52)

 MAXIMUM RESIDUAL FOR EACH ITERATION (1 INDICATES THE FIRST INNER ITERATION):

    RESIDUAL       RESIDUAL       RESIDUAL       RESIDUAL       RESIDUAL    
   LAYER,ROW,COL  LAYER,ROW,COL  LAYER,ROW,COL  LAYER,ROW,COL  LAYER,ROW,COL
 ---------------------------------------------------------------------------
  1 -0.4094E-04  0 -0.3168E-04  0 -0.1045E-04  0 -0.8989E-05  0 -0.6710E-05
   (  2, 29,  3)  (  2, 29,  3)  (  2, 29,  3)  (  2, 29,  3)  (  1, 29,  4)
  0 -0.4698E-05  0 -0.3742E-05  1 -0.3573E-05
   (  1, 29,  4)  (  1, 29,  4)  (  1, 29,  4)



 OUTPUT CONTROL FOR STRESS PERIOD    1   TIME STEP   46
    SAVE HEAD FOR ALL LAYERS
    SAVE DRAWDOWN FOR ALL LAYERS
    SAVE BUDGET
    PRINT BUDGET
 UBDSV2 SAVING "   CONSTANT HEAD" ON UNIT   9 AT TIME STEP 46, STRESS PERIOD   1
 UBDSV1 SAVING "FLOW RIGHT FACE " ON UNIT   9 AT TIME STEP 46, STRESS PERIOD   1
 UBDSV1 SAVING "FLOW FRONT FACE " ON UNIT   9 AT TIME STEP 46, STRESS PERIOD   1
 UBDSV1 SAVING "FLOW LOWER FACE " ON UNIT   9 AT TIME STEP 46, STRESS PERIOD   1
 UBDSV4 SAVING "           WELLS" ON UNIT   9 AT TIME STEP 46, STRESS PERIOD   1
 UBDSV4 SAVING "   RIVER LEAKAGE" ON UNIT   9 AT TIME STEP 46, STRESS PERIOD   1
 UBDSV3 SAVING "              ET" ON UNIT   9 AT TIME STEP 46, STRESS PERIOD   1
 UBDSV4 SAVING " HEAD DEP BOUNDS" ON UNIT   9 AT TIME STEP 46, STRESS PERIOD   1
 UBDSV3 SAVING "        RECHARGE" ON UNIT   9 AT TIME STEP 46, STRESS PERIOD   1
 SOLVING FOR ZETA FOR LAYER     1 ZONE     2
     2 CALLS TO PCG ROUTINE FOR TIME STEP  46 IN STRESS PERIOD    1
     5 TOTAL ITERATIONS

 MAXIMUM HEAD CHANGE FOR EACH ITERATION (1 INDICATES THE FIRST INNER ITERATION):

    HEAD CHANGE    HEAD CHANGE    HEAD CHANGE    HEAD CHANGE    HEAD CHANGE 
   LAYER,ROW,COL  LAYER,ROW,COL  LAYER,ROW,COL  LAYER,ROW,COL  LAYER,ROW,COL
 ---------------------------------------------------------------------------
  1  -1.019      0 -0.6334E-01  0  0.1291E-02  0 -0.4260E-04  1 -0.1323E-05
   (  1, 30,  3)  (  1, 29,  4)  (  1, 27,  3)  (  1, 30,  4)  (  1, 31,  3)

 MAXIMUM RESIDUAL FOR EACH ITERATION (1 INDICATES THE FIRST INNER ITERATION):

    RESIDUAL       RESIDUAL       RESIDUAL       RESIDUAL       RESIDUAL    
   LAYER,ROW,COL  LAYER,ROW,COL  LAYER,ROW,COL  LAYER,ROW,COL  LAYER,ROW,COL
 ---------------------------------------------------------------------------
  1  0.6572E-05  0 -0.1117E-06  0  0.4549E-08  0  0.1737E-09  1  0.7359E-11
   (  1, 29,  4)  (  1, 27,  3)  (  1, 30,  4)  (  1, 31,  3)  (  1, 30,  4)


 SOLVING FOR ZETA FOR LAYER     2 ZONE     2
     2 CALLS TO PCG ROUTINE FOR TIME STEP  46 IN STRESS PERIOD    1
     4 TOTAL ITERATIONS

 MAXIMUM HEAD CHANGE FOR EACH ITERATION (1 INDICATES THE FIRST INNER ITERATION):

    HEAD CHANGE    HEAD CHANGE    HEAD CHANGE    HEAD CHANGE    HEAD CHANGE 
   LAYER,ROW,COL  LAYER,ROW,COL  LAYER,ROW,COL  LAYER,ROW,COL  LAYER,ROW,COL
 ---------------------------------------------------------------------------
  1 -0.1603      0 -0.1221E-01  0 -0.7270E-03  1  0.5538E-08
   (  1, 34,  4)  (  1, 33,  5)  (  1, 34,  4)  (  1,  9,  9)

 MAXIMUM RESIDUAL FOR EACH ITERATION (1 INDICATES THE FIRST INNER ITERATION):

    RESIDUAL       RESIDUAL       RESIDUAL       RESIDUAL       RESIDUAL    
   LAYER,ROW,COL  LAYER,ROW,COL  LAYER,ROW,COL  LAYER,ROW,COL  LAYER,ROW,COL
 ---------------------------------------------------------------------------
  1  0.1194E-05  0  0.8542E-07  0 -0.1829E-14  1  0.2455E-13
   (  1, 33,  5)  (  1, 34,  4)  (  1, 33,  4)  (  1, 33,  5)


 UBUDSV SAVING "      ZETASRF  1" ON UNIT170 AT TIME STEP 46, STRESS PERIOD    1


                      VOLUMETRIC SWI ZONE BUDGET FOR ENTIRE MODEL
                     AT END OF TIME STEP   46 IN STRESS PERIOD   1
                                      ZONE     1
  -----------------------------------------------------------------------------------

        CUMULATIVE VOLUMES      L**3       RATES FOR THIS TIME STEP      L**3/T
        ------------------                 ------------------------

              IN:                                      IN:
              ---                                      ---
             BOUNDARIES =   465689120.0000            BOUNDARIES =           0.1608
          CONSTANT HEAD =           0.0000         CONSTANT HEAD =           0.0000
            ZONE CHANGE =    82672880.0000           ZONE CHANGE =       4.6700E-05
       ZONE CHG TIP/TOE =     3736623.0000      ZONE CHG TIP/TOE =           0.0000
            ZONE MIXING =           0.0000           ZONE MIXING =           0.0000

               TOTAL IN =   552098624.0000              TOTAL IN =           0.1608

             OUT:                                     OUT:
             ----                                     ----
             BOUNDARIES =   438049696.0000            BOUNDARIES =           0.1604
          CONSTANT HEAD =           0.0000         CONSTANT HEAD =           0.0000
            ZONE CHANGE =    22650836.0000           ZONE CHANGE =       3.5205E-04
       ZONE CHG TIP/TOE =     3389746.2500      ZONE CHG TIP/TOE =           0.0000
            ZONE MIXING =           0.0000           ZONE MIXING =           0.0000

              TOTAL OUT =   464090272.0000             TOTAL OUT =           0.1608

               IN - OUT =    88008352.0000              IN - OUT =       1.0431E-05

    PERCENT DISCREPANCY =          17.32     PERCENT DISCREPANCY =           0.01



                      VOLUMETRIC SWI ZONE BUDGET FOR ENTIRE MODEL
                     AT END OF TIME STEP   46 IN STRESS PERIOD   1
                                      ZONE     2
  -----------------------------------------------------------------------------------

        CUMULATIVE VOLUMES      L**3       RATES FOR THIS TIME STEP      L**3/T
        ------------------                 ------------------------

              IN:                                      IN:
              ---                                      ---
             BOUNDARIES =           0.0000            BOUNDARIES =           0.0000
          CONSTANT HEAD =           0.0000         CONSTANT HEAD =           0.0000
            ZONE CHANGE =    19462158.0000           ZONE CHANGE =       3.5151E-04
       ZONE CHG TIP/TOE =     3389746.2500      ZONE CHG TIP/TOE =           0.0000
            ZONE MIXING =           0.0000           ZONE MIXING =           0.0000

               TOTAL IN =    22851904.0000              TOTAL IN =       3.5151E-04

             OUT:                                     OUT:
             ----                                     ----
             BOUNDARIES =    27652058.0000            BOUNDARIES =       3.1734E-04
          CONSTANT HEAD =           0.0000         CONSTANT HEAD =           0.0000
            ZONE CHANGE =     2061534.3750           ZONE CHANGE =       3.9674E-05
       ZONE CHG TIP/TOE =     1424051.0000      ZONE CHG TIP/TOE =           0.0000
            ZONE MIXING =           0.0000           ZONE MIXING =           0.0000

              TOTAL OUT =    31137644.0000             TOTAL OUT =       3.5701E-04

               IN - OUT =    -8285740.0000              IN - OUT =      -5.5037E-06

    PERCENT DISCREPANCY =         -30.69     PERCENT DISCREPANCY =          -1.55


 HEAD WILL BE SAVED ON UNIT   37 AT END OF TIME STEP   46, STRESS PERIOD    1

 DRAWDOWN WILL BE SAVED ON UNIT   38 AT END OF TIME STEP   46, STRESS PERIOD    1
1
  VOLUMETRIC BUDGET FOR ENTIRE MODEL AT END OF TIME STEP   46, STRESS PERIOD   1
  ------------------------------------------------------------------------------

     CUMULATIVE VOLUMES      L**3       RATES FOR THIS TIME STEP      L**3/T
     ------------------                 ------------------------

           IN:                                      IN:
           ---                                      ---
             STORAGE =           0.0000               STORAGE =           0.0000
       CONSTANT HEAD =           0.0000         CONSTANT HEAD =           0.0000
               WELLS =           0.0000                 WELLS =           0.0000
       RIVER LEAKAGE =   101413864.0000         RIVER LEAKAGE =       3.5051E-02
                  ET =           0.0000                    ET =           0.0000
     HEAD DEP BOUNDS =           0.0000       HEAD DEP BOUNDS =           0.0000
            RECHARGE =   387016640.0000              RECHARGE =           0.1334
          SWIADDTOCH =           0.0000            SWIADDTOCH =           0.0000

            TOTAL IN =   488430496.0000              TOTAL IN =           0.1684

          OUT:                                     OUT:
          ----                                     ----
             STORAGE =           0.0000               STORAGE =           0.0000
       CONSTANT HEAD =           0.0000         CONSTANT HEAD =           0.0000
               WELLS =           0.0000                 WELLS =           0.0000
       RIVER LEAKAGE =    19834240.0000         RIVER LEAKAGE =       6.6588E-03
                  ET =   152214320.0000                    ET =       5.1563E-02
     HEAD DEP BOUNDS =   316394304.0000       HEAD DEP BOUNDS =           0.1102
            RECHARGE =           0.0000              RECHARGE =           0.0000
          SWIADDTOCH =           0.0000            SWIADDTOCH =           0.0000

           TOTAL OUT =   488442880.0000             TOTAL OUT =           0.1684

            IN - OUT =      -12384.0000              IN - OUT =      -1.5646E-06

 PERCENT DISCREPANCY =          -0.00     PERCENT DISCREPANCY =          -0.00






         TIME SUMMARY AT END OF TIME STEP   46 IN STRESS PERIOD    1
                    SECONDS     MINUTES      HOURS       DAYS        YEARS
                    -----------------------------------------------------------
   TIME STEP LENGTH 6.30720E+07 1.05120E+06  17520.      730.00      1.9986    
 STRESS PERIOD TIME 2.90131E+09 4.83552E+07 8.05920E+05  33580.      91.937    
         TOTAL TIME 2.90131E+09 4.83552E+07 8.05920E+05  33580.      91.937    
1
 
 SOLVING FOR HEAD 
     3 CALLS TO PCG ROUTINE FOR TIME STEP  47 IN STRESS PERIOD    1
    12 TOTAL ITERATIONS

 MAXIMUM HEAD CHANGE FOR EACH ITERATION (1 INDICATES THE FIRST INNER ITERATION):

    HEAD CHANGE    HEAD CHANGE    HEAD CHANGE    HEAD CHANGE    HEAD CHANGE 
   LAYER,ROW,COL  LAYER,ROW,COL  LAYER,ROW,COL  LAYER,ROW,COL  LAYER,ROW,COL
 ---------------------------------------------------------------------------
  1 -0.1317E-01  0  0.1272E-01  0 -0.1462E-01  0  0.2450E-01  0 -0.3415E-01
   (  2, 22, 49)  (  2, 22, 49)  (  2, 59, 34)  (  2, 59, 34)  (  2, 59, 34)
  0  0.2552E-01  0  0.2861E-02  0 -0.1601E-02  0 -0.6049E-03  1 -0.1031E-02
   (  2, 59, 34)  (  2,  3, 32)  (  2,  3, 32)  (  2, 20, 52)  (  2, 58, 31)
  0  0.5555E-03  1 -0.5680E-03
   (  2, 58, 31)  (  2,  3, 32)

 MAXIMUM RESIDUAL FOR EACH ITERATION (1 INDICATES THE FIRST INNER ITERATION):

    RESIDUAL       RESIDUAL       RESIDUAL       RESIDUAL       RESIDUAL    
   LAYER,ROW,COL  LAYER,ROW,COL  LAYER,ROW,COL  LAYER,ROW,COL  LAYER,ROW,COL
 ---------------------------------------------------------------------------
  1 -0.4650E-04  0 -0.2721E-04  0 -0.2039E-04  0 -0.1851E-04  0 -0.1088E-04
   (  1, 30,  3)  (  2, 29,  3)  (  2, 29,  3)  (  2, 29,  3)  (  2, 29,  3)
  0 -0.7127E-05  0 -0.4516E-05  0 -0.3873E-05  0 -0.2856E-05  1 -0.2407E-05
   (  2, 29,  3)  (  2, 29,  3)  (  1, 29,  4)  (  1, 29,  4)  (  1, 29,  4)
  0 -0.1767E-05  1 -0.1667E-05
   (  1, 29,  4)  (  1, 29,  4)



 OUTPUT CONTROL FOR STRESS PERIOD    1   TIME STEP   47
    SAVE HEAD FOR ALL LAYERS
    SAVE DRAWDOWN FOR ALL LAYERS
    SAVE BUDGET
    PRINT BUDGET
 UBDSV2 SAVING "   CONSTANT HEAD" ON UNIT   9 AT TIME STEP 47, STRESS PERIOD   1
 UBDSV1 SAVING "FLOW RIGHT FACE " ON UNIT   9 AT TIME STEP 47, STRESS PERIOD   1
 UBDSV1 SAVING "FLOW FRONT FACE " ON UNIT   9 AT TIME STEP 47, STRESS PERIOD   1
 UBDSV1 SAVING "FLOW LOWER FACE " ON UNIT   9 AT TIME STEP 47, STRESS PERIOD   1
 UBDSV4 SAVING "           WELLS" ON UNIT   9 AT TIME STEP 47, STRESS PERIOD   1
 UBDSV4 SAVING "   RIVER LEAKAGE" ON UNIT   9 AT TIME STEP 47, STRESS PERIOD   1
 UBDSV3 SAVING "              ET" ON UNIT   9 AT TIME STEP 47, STRESS PERIOD   1
 UBDSV4 SAVING " HEAD DEP BOUNDS" ON UNIT   9 AT TIME STEP 47, STRESS PERIOD   1
 UBDSV3 SAVING "        RECHARGE" ON UNIT   9 AT TIME STEP 47, STRESS PERIOD   1
 SOLVING FOR ZETA FOR LAYER     1 ZONE     2
     2 CALLS TO PCG ROUTINE FOR TIME STEP  47 IN STRESS PERIOD    1
     4 TOTAL ITERATIONS

 MAXIMUM HEAD CHANGE FOR EACH ITERATION (1 INDICATES THE FIRST INNER ITERATION):

    HEAD CHANGE    HEAD CHANGE    HEAD CHANGE    HEAD CHANGE    HEAD CHANGE 
   LAYER,ROW,COL  LAYER,ROW,COL  LAYER,ROW,COL  LAYER,ROW,COL  LAYER,ROW,COL
 ---------------------------------------------------------------------------
  1 -0.7107      0 -0.4363E-01  0  0.9097E-03  1 -0.2563E-04
   (  1, 30,  3)  (  1, 29,  4)  (  1, 27,  3)  (  1, 30,  4)

 MAXIMUM RESIDUAL FOR EACH ITERATION (1 INDICATES THE FIRST INNER ITERATION):

    RESIDUAL       RESIDUAL       RESIDUAL       RESIDUAL       RESIDUAL    
   LAYER,ROW,COL  LAYER,ROW,COL  LAYER,ROW,COL  LAYER,ROW,COL  LAYER,ROW,COL
 ---------------------------------------------------------------------------
  1  0.4453E-05  0 -0.7674E-07  0  0.2780E-08  1  0.1332E-09
   (  1, 29,  4)  (  1, 27,  3)  (  1, 30,  4)  (  1, 31,  3)


 SOLVING FOR ZETA FOR LAYER     2 ZONE     2
     2 CALLS TO PCG ROUTINE FOR TIME STEP  47 IN STRESS PERIOD    1
     4 TOTAL ITERATIONS

 MAXIMUM HEAD CHANGE FOR EACH ITERATION (1 INDICATES THE FIRST INNER ITERATION):

    HEAD CHANGE    HEAD CHANGE    HEAD CHANGE    HEAD CHANGE    HEAD CHANGE 
   LAYER,ROW,COL  LAYER,ROW,COL  LAYER,ROW,COL  LAYER,ROW,COL  LAYER,ROW,COL
 ---------------------------------------------------------------------------
  1 -0.1508      0 -0.1132E-01  0 -0.6803E-03  1 -0.3998E-08
   (  1, 34,  4)  (  1, 33,  5)  (  1, 34,  4)  (  1,  9,  9)

 MAXIMUM RESIDUAL FOR EACH ITERATION (1 INDICATES THE FIRST INNER ITERATION):

    RESIDUAL       RESIDUAL       RESIDUAL       RESIDUAL       RESIDUAL    
   LAYER,ROW,COL  LAYER,ROW,COL  LAYER,ROW,COL  LAYER,ROW,COL  LAYER,ROW,COL
 ---------------------------------------------------------------------------
  1  0.1103E-05  0  0.8012E-07  0 -0.1820E-14  1  0.1829E-13
   (  1, 33,  5)  (  1, 34,  4)  (  1,  5,  9)  (  1, 33,  5)


 UBUDSV SAVING "      ZETASRF  1" ON UNIT170 AT TIME STEP 47, STRESS PERIOD    1


                      VOLUMETRIC SWI ZONE BUDGET FOR ENTIRE MODEL
                     AT END OF TIME STEP   47 IN STRESS PERIOD   1
                                      ZONE     1
  -----------------------------------------------------------------------------------

        CUMULATIVE VOLUMES      L**3       RATES FOR THIS TIME STEP      L**3/T
        ------------------                 ------------------------

              IN:                                      IN:
              ---                                      ---
             BOUNDARIES =   475828352.0000            BOUNDARIES =           0.1608
          CONSTANT HEAD =           0.0000         CONSTANT HEAD =           0.0000
            ZONE CHANGE =    82675256.0000           ZONE CHANGE =       3.7708E-05
       ZONE CHG TIP/TOE =     3736623.0000      ZONE CHG TIP/TOE =           0.0000
            ZONE MIXING =           0.0000           ZONE MIXING =           0.0000

               TOTAL IN =   562240256.0000              TOTAL IN =           0.1608

             OUT:                                     OUT:
             ----                                     ----
             BOUNDARIES =   448170048.0000            BOUNDARIES =           0.1605
          CONSTANT HEAD =           0.0000         CONSTANT HEAD =           0.0000
            ZONE CHANGE =    22671748.0000           ZONE CHANGE =       3.3155E-04
       ZONE CHG TIP/TOE =     3389746.2500      ZONE CHG TIP/TOE =           0.0000
            ZONE MIXING =           0.0000           ZONE MIXING =           0.0000

              TOTAL OUT =   474231552.0000             TOTAL OUT =           0.1608

               IN - OUT =    88008704.0000              IN - OUT =       5.3644E-06

    PERCENT DISCREPANCY =          16.98     PERCENT DISCREPANCY =           0.00



                      VOLUMETRIC SWI ZONE BUDGET FOR ENTIRE MODEL
                     AT END OF TIME STEP   47 IN STRESS PERIOD   1
                                      ZONE     2
  -----------------------------------------------------------------------------------

        CUMULATIVE VOLUMES      L**3       RATES FOR THIS TIME STEP      L**3/T
        ------------------                 ------------------------

              IN:                                      IN:
              ---                                      ---
             BOUNDARIES =           0.0000            BOUNDARIES =           0.0000
          CONSTANT HEAD =           0.0000         CONSTANT HEAD =           0.0000
            ZONE CHANGE =    19483046.0000           ZONE CHANGE =       3.3118E-04
       ZONE CHG TIP/TOE =     3389746.2500      ZONE CHG TIP/TOE =           0.0000
            ZONE MIXING =           0.0000           ZONE MIXING =           0.0000

               TOTAL IN =    22872792.0000              TOTAL IN =       3.3118E-04

             OUT:                                     OUT:
             ----                                     ----
             BOUNDARIES =    27671002.0000            BOUNDARIES =       3.0034E-04
          CONSTANT HEAD =           0.0000         CONSTANT HEAD =           0.0000
            ZONE CHANGE =     2063465.3750           ZONE CHANGE =       3.0615E-05
       ZONE CHG TIP/TOE =     1424051.0000      ZONE CHG TIP/TOE =           0.0000
            ZONE MIXING =           0.0000           ZONE MIXING =           0.0000

              TOTAL OUT =    31158518.0000             TOTAL OUT =       3.3096E-04

               IN - OUT =    -8285726.0000              IN - OUT =       2.2200E-07

    PERCENT DISCREPANCY =         -30.67     PERCENT DISCREPANCY =           0.07


 HEAD WILL BE SAVED ON UNIT   37 AT END OF TIME STEP   47, STRESS PERIOD    1

 DRAWDOWN WILL BE SAVED ON UNIT   38 AT END OF TIME STEP   47, STRESS PERIOD    1
1
  VOLUMETRIC BUDGET FOR ENTIRE MODEL AT END OF TIME STEP   47, STRESS PERIOD   1
  ------------------------------------------------------------------------------

     CUMULATIVE VOLUMES      L**3       RATES FOR THIS TIME STEP      L**3/T
     ------------------                 ------------------------

           IN:                                      IN:
           ---                                      ---
             STORAGE =           0.0000               STORAGE =           0.0000
       CONSTANT HEAD =           0.0000         CONSTANT HEAD =           0.0000
               WELLS =           0.0000                 WELLS =           0.0000
       RIVER LEAKAGE =   103624616.0000         RIVER LEAKAGE =       3.5051E-02
                  ET =           0.0000                    ET =           0.0000
     HEAD DEP BOUNDS =           0.0000       HEAD DEP BOUNDS =           0.0000
            RECHARGE =   395430048.0000              RECHARGE =           0.1334
          SWIADDTOCH =           0.0000            SWIADDTOCH =           0.0000

            TOTAL IN =   499054656.0000              TOTAL IN =           0.1684

          OUT:                                     OUT:
          ----                                     ----
             STORAGE =           0.0000               STORAGE =           0.0000
       CONSTANT HEAD =           0.0000         CONSTANT HEAD =           0.0000
               WELLS =           0.0000                 WELLS =           0.0000
       RIVER LEAKAGE =    20254150.0000         RIVER LEAKAGE =       6.6576E-03
                  ET =   155466368.0000                    ET =       5.1561E-02
     HEAD DEP BOUNDS =   323346560.0000       HEAD DEP BOUNDS =           0.1102
            RECHARGE =           0.0000              RECHARGE =           0.0000
          SWIADDTOCH =           0.0000            SWIADDTOCH =           0.0000

           TOTAL OUT =   499067072.0000             TOTAL OUT =           0.1684

            IN - OUT =      -12416.0000              IN - OUT =      -1.1474E-06

 PERCENT DISCREPANCY =          -0.00     PERCENT DISCREPANCY =          -0.00






         TIME SUMMARY AT END OF TIME STEP   47 IN STRESS PERIOD    1
                    SECONDS     MINUTES      HOURS       DAYS        YEARS
                    -----------------------------------------------------------
   TIME STEP LENGTH 6.30720E+07 1.05120E+06  17520.      730.00      1.9986    
 STRESS PERIOD TIME 2.96438E+09 4.94064E+07 8.23440E+05  34310.      93.936    
         TOTAL TIME 2.96438E+09 4.94064E+07 8.23440E+05  34310.      93.936    
1
 
 SOLVING FOR HEAD 
     2 CALLS TO PCG ROUTINE FOR TIME STEP  48 IN STRESS PERIOD    1
     8 TOTAL ITERATIONS

 MAXIMUM HEAD CHANGE FOR EACH ITERATION (1 INDICATES THE FIRST INNER ITERATION):

    HEAD CHANGE    HEAD CHANGE    HEAD CHANGE    HEAD CHANGE    HEAD CHANGE 
   LAYER,ROW,COL  LAYER,ROW,COL  LAYER,ROW,COL  LAYER,ROW,COL  LAYER,ROW,COL
 ---------------------------------------------------------------------------
  1 -0.1382E-01  0  0.3016E-01  0 -0.2105E-01  0  0.1302E-01  0 -0.8525E-02
   (  2, 59, 34)  (  2, 59, 34)  (  2, 59, 34)  (  2, 59, 34)  (  2, 59, 34)
  0  0.1054E-02  0 -0.6724E-03  1 -0.5855E-03
   (  2, 22, 49)  (  2, 22, 49)  (  2, 20, 52)

 MAXIMUM RESIDUAL FOR EACH ITERATION (1 INDICATES THE FIRST INNER ITERATION):

    RESIDUAL       RESIDUAL       RESIDUAL       RESIDUAL       RESIDUAL    
   LAYER,ROW,COL  LAYER,ROW,COL  LAYER,ROW,COL  LAYER,ROW,COL  LAYER,ROW,COL
 ---------------------------------------------------------------------------
  1 -0.2442E-04  0 -0.2278E-04  0 -0.1959E-04  0 -0.1407E-04  0 -0.4274E-05
   (  1, 30,  3)  (  1, 30,  3)  (  1, 30,  3)  (  1, 30,  3)  (  2, 29,  3)
  0 -0.3303E-05  0 -0.2779E-05  1 -0.2526E-05
   (  2, 29,  3)  (  2, 29,  3)  (  2, 29,  3)



 OUTPUT CONTROL FOR STRESS PERIOD    1   TIME STEP   48
    SAVE HEAD FOR ALL LAYERS
    SAVE DRAWDOWN FOR ALL LAYERS
    SAVE BUDGET
    PRINT BUDGET
 UBDSV2 SAVING "   CONSTANT HEAD" ON UNIT   9 AT TIME STEP 48, STRESS PERIOD   1
 UBDSV1 SAVING "FLOW RIGHT FACE " ON UNIT   9 AT TIME STEP 48, STRESS PERIOD   1
 UBDSV1 SAVING "FLOW FRONT FACE " ON UNIT   9 AT TIME STEP 48, STRESS PERIOD   1
 UBDSV1 SAVING "FLOW LOWER FACE " ON UNIT   9 AT TIME STEP 48, STRESS PERIOD   1
 UBDSV4 SAVING "           WELLS" ON UNIT   9 AT TIME STEP 48, STRESS PERIOD   1
 UBDSV4 SAVING "   RIVER LEAKAGE" ON UNIT   9 AT TIME STEP 48, STRESS PERIOD   1
 UBDSV3 SAVING "              ET" ON UNIT   9 AT TIME STEP 48, STRESS PERIOD   1
 UBDSV4 SAVING " HEAD DEP BOUNDS" ON UNIT   9 AT TIME STEP 48, STRESS PERIOD   1
 UBDSV3 SAVING "        RECHARGE" ON UNIT   9 AT TIME STEP 48, STRESS PERIOD   1
 SOLVING FOR ZETA FOR LAYER     1 ZONE     2
     2 CALLS TO PCG ROUTINE FOR TIME STEP  48 IN STRESS PERIOD    1
     4 TOTAL ITERATIONS

 MAXIMUM HEAD CHANGE FOR EACH ITERATION (1 INDICATES THE FIRST INNER ITERATION):

    HEAD CHANGE    HEAD CHANGE    HEAD CHANGE    HEAD CHANGE    HEAD CHANGE 
   LAYER,ROW,COL  LAYER,ROW,COL  LAYER,ROW,COL  LAYER,ROW,COL  LAYER,ROW,COL
 ---------------------------------------------------------------------------
  1 -0.5041      0 -0.3042E-01  0  0.6422E-03  1 -0.1503E-04
   (  1, 30,  3)  (  1, 29,  4)  (  1, 27,  3)  (  1, 30,  4)

 MAXIMUM RESIDUAL FOR EACH ITERATION (1 INDICATES THE FIRST INNER ITERATION):

    RESIDUAL       RESIDUAL       RESIDUAL       RESIDUAL       RESIDUAL    
   LAYER,ROW,COL  LAYER,ROW,COL  LAYER,ROW,COL  LAYER,ROW,COL  LAYER,ROW,COL
 ---------------------------------------------------------------------------
  1  0.3060E-05  0 -0.5274E-07  0  0.1642E-08  1  0.7636E-10
   (  1, 29,  4)  (  1, 27,  3)  (  1, 30,  4)  (  1, 31,  3)


 SOLVING FOR ZETA FOR LAYER     2 ZONE     2
     2 CALLS TO PCG ROUTINE FOR TIME STEP  48 IN STRESS PERIOD    1
     4 TOTAL ITERATIONS

 MAXIMUM HEAD CHANGE FOR EACH ITERATION (1 INDICATES THE FIRST INNER ITERATION):

    HEAD CHANGE    HEAD CHANGE    HEAD CHANGE    HEAD CHANGE    HEAD CHANGE 
   LAYER,ROW,COL  LAYER,ROW,COL  LAYER,ROW,COL  LAYER,ROW,COL  LAYER,ROW,COL
 ---------------------------------------------------------------------------
  1 -0.1457      0 -0.1084E-01  0 -0.6600E-03  1  0.2799E-08
   (  1, 34,  4)  (  1, 33,  5)  (  1, 34,  4)  (  1,  5,  9)

 MAXIMUM RESIDUAL FOR EACH ITERATION (1 INDICATES THE FIRST INNER ITERATION):

    RESIDUAL       RESIDUAL       RESIDUAL       RESIDUAL       RESIDUAL    
   LAYER,ROW,COL  LAYER,ROW,COL  LAYER,ROW,COL  LAYER,ROW,COL  LAYER,ROW,COL
 ---------------------------------------------------------------------------
  1  0.1053E-05  0  0.7763E-07  0  0.1972E-14  1 -0.7446E-14
   (  1, 33,  5)  (  1, 34,  4)  (  1, 33,  4)  (  1, 34,  4)


 UBUDSV SAVING "      ZETASRF  1" ON UNIT170 AT TIME STEP 48, STRESS PERIOD    1


                      VOLUMETRIC SWI ZONE BUDGET FOR ENTIRE MODEL
                     AT END OF TIME STEP   48 IN STRESS PERIOD   1
                                      ZONE     1
  -----------------------------------------------------------------------------------

        CUMULATIVE VOLUMES      L**3       RATES FOR THIS TIME STEP      L**3/T
        ------------------                 ------------------------

              IN:                                      IN:
              ---                                      ---
             BOUNDARIES =   485967584.0000            BOUNDARIES =           0.1608
          CONSTANT HEAD =           0.0000         CONSTANT HEAD =           0.0000
            ZONE CHANGE =    82677360.0000           ZONE CHANGE =       3.3308E-05
       ZONE CHG TIP/TOE =     3737359.7500      ZONE CHG TIP/TOE =       1.1683E-05
            ZONE MIXING =           0.0000           ZONE MIXING =           0.0000

               TOTAL IN =   572382336.0000              TOTAL IN =           0.1608

             OUT:                                     OUT:
             ----                                     ----
             BOUNDARIES =   458291392.0000            BOUNDARIES =           0.1605
          CONSTANT HEAD =           0.0000         CONSTANT HEAD =           0.0000
            ZONE CHANGE =    22691782.0000           ZONE CHANGE =       3.1765E-04
       ZONE CHG TIP/TOE =     3390483.0000      ZONE CHG TIP/TOE =       1.1683E-05
            ZONE MIXING =           0.0000           ZONE MIXING =           0.0000

              TOTAL OUT =   484373664.0000             TOTAL OUT =           0.1608

               IN - OUT =    88008672.0000              IN - OUT =      -4.3213E-07

    PERCENT DISCREPANCY =          16.66     PERCENT DISCREPANCY =          -0.00



                      VOLUMETRIC SWI ZONE BUDGET FOR ENTIRE MODEL
                     AT END OF TIME STEP   48 IN STRESS PERIOD   1
                                      ZONE     2
  -----------------------------------------------------------------------------------

        CUMULATIVE VOLUMES      L**3       RATES FOR THIS TIME STEP      L**3/T
        ------------------                 ------------------------

              IN:                                      IN:
              ---                                      ---
             BOUNDARIES =           0.0000            BOUNDARIES =           0.0000
          CONSTANT HEAD =           0.0000         CONSTANT HEAD =           0.0000
            ZONE CHANGE =    19503054.0000           ZONE CHANGE =       3.1723E-04
       ZONE CHG TIP/TOE =     3390483.0000      ZONE CHG TIP/TOE =       1.1683E-05
            ZONE MIXING =           0.0000           ZONE MIXING =           0.0000

               TOTAL IN =    22893536.0000              TOTAL IN =       3.2891E-04

             OUT:                                     OUT:
             ----                                     ----
             BOUNDARIES =    27688988.0000            BOUNDARIES =       2.8518E-04
          CONSTANT HEAD =           0.0000         CONSTANT HEAD =           0.0000
            ZONE CHANGE =     2065310.7500           ZONE CHANGE =       2.9259E-05
       ZONE CHG TIP/TOE =     1424787.8750      ZONE CHG TIP/TOE =       1.1683E-05
            ZONE MIXING =           0.0000           ZONE MIXING =           0.0000

              TOTAL OUT =    31179086.0000             TOTAL OUT =       3.2612E-04

               IN - OUT =    -8285550.0000              IN - OUT =       2.7937E-06

    PERCENT DISCREPANCY =         -30.65     PERCENT DISCREPANCY =           0.85


 HEAD WILL BE SAVED ON UNIT   37 AT END OF TIME STEP   48, STRESS PERIOD    1

 DRAWDOWN WILL BE SAVED ON UNIT   38 AT END OF TIME STEP   48, STRESS PERIOD    1
1
  VOLUMETRIC BUDGET FOR ENTIRE MODEL AT END OF TIME STEP   48, STRESS PERIOD   1
  ------------------------------------------------------------------------------

     CUMULATIVE VOLUMES      L**3       RATES FOR THIS TIME STEP      L**3/T
     ------------------                 ------------------------

           IN:                                      IN:
           ---                                      ---
             STORAGE =           0.0000               STORAGE =           0.0000
       CONSTANT HEAD =           0.0000         CONSTANT HEAD =           0.0000
               WELLS =           0.0000                 WELLS =           0.0000
       RIVER LEAKAGE =   105835384.0000         RIVER LEAKAGE =       3.5052E-02
                  ET =           0.0000                    ET =           0.0000
     HEAD DEP BOUNDS =           0.0000       HEAD DEP BOUNDS =           0.0000
            RECHARGE =   403843456.0000              RECHARGE =           0.1334
          SWIADDTOCH =           0.0000            SWIADDTOCH =           0.0000

            TOTAL IN =   509678848.0000              TOTAL IN =           0.1684

          OUT:                                     OUT:
          ----                                     ----
             STORAGE =           0.0000               STORAGE =           0.0000
       CONSTANT HEAD =           0.0000         CONSTANT HEAD =           0.0000
               WELLS =           0.0000                 WELLS =           0.0000
       RIVER LEAKAGE =    20674018.0000         RIVER LEAKAGE =       6.6570E-03
                  ET =   158718384.0000                    ET =       5.1560E-02
     HEAD DEP BOUNDS =   330298944.0000       HEAD DEP BOUNDS =           0.1102
            RECHARGE =           0.0000              RECHARGE =           0.0000
          SWIADDTOCH =           0.0000            SWIADDTOCH =           0.0000

           TOTAL OUT =   509691328.0000             TOTAL OUT =           0.1684

            IN - OUT =      -12480.0000              IN - OUT =      -1.2666E-06

 PERCENT DISCREPANCY =          -0.00     PERCENT DISCREPANCY =          -0.00






         TIME SUMMARY AT END OF TIME STEP   48 IN STRESS PERIOD    1
                    SECONDS     MINUTES      HOURS       DAYS        YEARS
                    -----------------------------------------------------------
   TIME STEP LENGTH 6.30720E+07 1.05120E+06  17520.      730.00      1.9986    
 STRESS PERIOD TIME 3.02746E+09 5.04576E+07 8.40960E+05  35040.      95.934    
         TOTAL TIME 3.02746E+09 5.04576E+07 8.40960E+05  35040.      95.934    
1
 
 SOLVING FOR HEAD 
     2 CALLS TO PCG ROUTINE FOR TIME STEP  49 IN STRESS PERIOD    1
     9 TOTAL ITERATIONS

 MAXIMUM HEAD CHANGE FOR EACH ITERATION (1 INDICATES THE FIRST INNER ITERATION):

    HEAD CHANGE    HEAD CHANGE    HEAD CHANGE    HEAD CHANGE    HEAD CHANGE 
   LAYER,ROW,COL  LAYER,ROW,COL  LAYER,ROW,COL  LAYER,ROW,COL  LAYER,ROW,COL
 ---------------------------------------------------------------------------
  1  0.7691E-02  0  0.7943E-02  0 -0.9123E-02  0  0.1492E-01  0 -0.2395E-01
   (  2, 20, 52)  (  2, 22, 49)  (  2, 59, 34)  (  2, 59, 34)  (  2, 59, 34)
  0  0.1823E-01  0  0.1530E-02  0 -0.4672E-03  1  0.3735E-03
   (  2, 59, 34)  (  2,  3, 32)  (  2, 20, 52)  (  2, 52, 26)

 MAXIMUM RESIDUAL FOR EACH ITERATION (1 INDICATES THE FIRST INNER ITERATION):

    RESIDUAL       RESIDUAL       RESIDUAL       RESIDUAL       RESIDUAL    
   LAYER,ROW,COL  LAYER,ROW,COL  LAYER,ROW,COL  LAYER,ROW,COL  LAYER,ROW,COL
 ---------------------------------------------------------------------------
  1 -0.3877E-04  0 -0.2132E-04  0 -0.1670E-04  0 -0.8055E-05  0 -0.4579E-05
   (  1, 30,  3)  (  1, 30,  3)  (  1, 30,  3)  (  1, 30,  3)  (  1, 30,  3)
  0  0.2563E-05  0  0.2274E-05  0  0.1590E-05  1 -0.1368E-05
   (  2, 27,  3)  (  2, 27,  3)  (  2, 27,  3)  (  1, 29,  4)



 OUTPUT CONTROL FOR STRESS PERIOD    1   TIME STEP   49
    SAVE HEAD FOR ALL LAYERS
    SAVE DRAWDOWN FOR ALL LAYERS
    SAVE BUDGET
    PRINT BUDGET
 UBDSV2 SAVING "   CONSTANT HEAD" ON UNIT   9 AT TIME STEP 49, STRESS PERIOD   1
 UBDSV1 SAVING "FLOW RIGHT FACE " ON UNIT   9 AT TIME STEP 49, STRESS PERIOD   1
 UBDSV1 SAVING "FLOW FRONT FACE " ON UNIT   9 AT TIME STEP 49, STRESS PERIOD   1
 UBDSV1 SAVING "FLOW LOWER FACE " ON UNIT   9 AT TIME STEP 49, STRESS PERIOD   1
 UBDSV4 SAVING "           WELLS" ON UNIT   9 AT TIME STEP 49, STRESS PERIOD   1
 UBDSV4 SAVING "   RIVER LEAKAGE" ON UNIT   9 AT TIME STEP 49, STRESS PERIOD   1
 UBDSV3 SAVING "              ET" ON UNIT   9 AT TIME STEP 49, STRESS PERIOD   1
 UBDSV4 SAVING " HEAD DEP BOUNDS" ON UNIT   9 AT TIME STEP 49, STRESS PERIOD   1
 UBDSV3 SAVING "        RECHARGE" ON UNIT   9 AT TIME STEP 49, STRESS PERIOD   1
 SOLVING FOR ZETA FOR LAYER     1 ZONE     2
     2 CALLS TO PCG ROUTINE FOR TIME STEP  49 IN STRESS PERIOD    1
     4 TOTAL ITERATIONS

 MAXIMUM HEAD CHANGE FOR EACH ITERATION (1 INDICATES THE FIRST INNER ITERATION):

    HEAD CHANGE    HEAD CHANGE    HEAD CHANGE    HEAD CHANGE    HEAD CHANGE 
   LAYER,ROW,COL  LAYER,ROW,COL  LAYER,ROW,COL  LAYER,ROW,COL  LAYER,ROW,COL
 ---------------------------------------------------------------------------
  1 -0.3683      0 -0.2123E-01  0  0.4541E-03  1 -0.8802E-05
   (  1, 30,  3)  (  1, 29,  4)  (  1, 27,  3)  (  1, 30,  4)

 MAXIMUM RESIDUAL FOR EACH ITERATION (1 INDICATES THE FIRST INNER ITERATION):

    RESIDUAL       RESIDUAL       RESIDUAL       RESIDUAL       RESIDUAL    
   LAYER,ROW,COL  LAYER,ROW,COL  LAYER,ROW,COL  LAYER,ROW,COL  LAYER,ROW,COL
 ---------------------------------------------------------------------------
  1  0.2124E-05  0 -0.3618E-07  0  0.9646E-09  1  0.4419E-10
   (  1, 29,  4)  (  1, 27,  3)  (  1, 30,  4)  (  1, 31,  3)


 SOLVING FOR ZETA FOR LAYER     2 ZONE     2
     2 CALLS TO PCG ROUTINE FOR TIME STEP  49 IN STRESS PERIOD    1
     4 TOTAL ITERATIONS

 MAXIMUM HEAD CHANGE FOR EACH ITERATION (1 INDICATES THE FIRST INNER ITERATION):

    HEAD CHANGE    HEAD CHANGE    HEAD CHANGE    HEAD CHANGE    HEAD CHANGE 
   LAYER,ROW,COL  LAYER,ROW,COL  LAYER,ROW,COL  LAYER,ROW,COL  LAYER,ROW,COL
 ---------------------------------------------------------------------------
  1 -0.1380      0 -0.1008E-01  0 -0.6169E-03  1  0.3464E-08
   (  1, 34,  4)  (  1, 33,  5)  (  1, 34,  4)  (  1,  5,  8)

 MAXIMUM RESIDUAL FOR EACH ITERATION (1 INDICATES THE FIRST INNER ITERATION):

    RESIDUAL       RESIDUAL       RESIDUAL       RESIDUAL       RESIDUAL    
   LAYER,ROW,COL  LAYER,ROW,COL  LAYER,ROW,COL  LAYER,ROW,COL  LAYER,ROW,COL
 ---------------------------------------------------------------------------
  1  0.9735E-06  0  0.7251E-07  0 -0.2792E-14  1  0.1964E-13
   (  1, 33,  5)  (  1, 34,  4)  (  1, 33,  4)  (  1, 33,  5)


 UBUDSV SAVING "      ZETASRF  1" ON UNIT170 AT TIME STEP 49, STRESS PERIOD    1


                      VOLUMETRIC SWI ZONE BUDGET FOR ENTIRE MODEL
                     AT END OF TIME STEP   49 IN STRESS PERIOD   1
                                      ZONE     1
  -----------------------------------------------------------------------------------

        CUMULATIVE VOLUMES      L**3       RATES FOR THIS TIME STEP      L**3/T
        ------------------                 ------------------------

              IN:                                      IN:
              ---                                      ---
             BOUNDARIES =   496106848.0000            BOUNDARIES =           0.1608
          CONSTANT HEAD =           0.0000         CONSTANT HEAD =           0.0000
            ZONE CHANGE =    82679208.0000           ZONE CHANGE =       2.9260E-05
       ZONE CHG TIP/TOE =     3737359.7500      ZONE CHG TIP/TOE =           0.0000
            ZONE MIXING =           0.0000           ZONE MIXING =           0.0000

               TOTAL IN =   582523392.0000              TOTAL IN =           0.1608

             OUT:                                     OUT:
             ----                                     ----
             BOUNDARIES =   468413600.0000            BOUNDARIES =           0.1605
          CONSTANT HEAD =           0.0000         CONSTANT HEAD =           0.0000
            ZONE CHANGE =    22710708.0000           ZONE CHANGE =       3.0007E-04
       ZONE CHG TIP/TOE =     3390483.0000      ZONE CHG TIP/TOE =           0.0000
            ZONE MIXING =           0.0000           ZONE MIXING =           0.0000

              TOTAL OUT =   494514784.0000             TOTAL OUT =           0.1608

               IN - OUT =    88008608.0000              IN - OUT =      -5.8115E-07

    PERCENT DISCREPANCY =          16.34     PERCENT DISCREPANCY =          -0.00



                      VOLUMETRIC SWI ZONE BUDGET FOR ENTIRE MODEL
                     AT END OF TIME STEP   49 IN STRESS PERIOD   1
                                      ZONE     2
  -----------------------------------------------------------------------------------

        CUMULATIVE VOLUMES      L**3       RATES FOR THIS TIME STEP      L**3/T
        ------------------                 ------------------------

              IN:                                      IN:
              ---                                      ---
             BOUNDARIES =           0.0000            BOUNDARIES =           0.0000
          CONSTANT HEAD =           0.0000         CONSTANT HEAD =           0.0000
            ZONE CHANGE =    19521944.0000           ZONE CHANGE =       2.9950E-04
       ZONE CHG TIP/TOE =     3390483.0000      ZONE CHG TIP/TOE =           0.0000
            ZONE MIXING =           0.0000           ZONE MIXING =           0.0000

               TOTAL IN =    22912428.0000              TOTAL IN =       2.9950E-04

             OUT:                                     OUT:
             ----                                     ----
             BOUNDARIES =    27706098.0000            BOUNDARIES =       2.7128E-04
          CONSTANT HEAD =           0.0000         CONSTANT HEAD =           0.0000
            ZONE CHANGE =     2066922.1250           ZONE CHANGE =       2.5547E-05
       ZONE CHG TIP/TOE =     1424787.8750      ZONE CHG TIP/TOE =           0.0000
            ZONE MIXING =           0.0000           ZONE MIXING =           0.0000

              TOTAL OUT =    31197808.0000             TOTAL OUT =       2.9683E-04

               IN - OUT =    -8285380.0000              IN - OUT =       2.6686E-06

    PERCENT DISCREPANCY =         -30.62     PERCENT DISCREPANCY =           0.90


 HEAD WILL BE SAVED ON UNIT   37 AT END OF TIME STEP   49, STRESS PERIOD    1

 DRAWDOWN WILL BE SAVED ON UNIT   38 AT END OF TIME STEP   49, STRESS PERIOD    1
1
  VOLUMETRIC BUDGET FOR ENTIRE MODEL AT END OF TIME STEP   49, STRESS PERIOD   1
  ------------------------------------------------------------------------------

     CUMULATIVE VOLUMES      L**3       RATES FOR THIS TIME STEP      L**3/T
     ------------------                 ------------------------

           IN:                                      IN:
           ---                                      ---
             STORAGE =           0.0000               STORAGE =           0.0000
       CONSTANT HEAD =           0.0000         CONSTANT HEAD =           0.0000
               WELLS =           0.0000                 WELLS =           0.0000
       RIVER LEAKAGE =   108046168.0000         RIVER LEAKAGE =       3.5052E-02
                  ET =           0.0000                    ET =           0.0000
     HEAD DEP BOUNDS =           0.0000       HEAD DEP BOUNDS =           0.0000
            RECHARGE =   412256864.0000              RECHARGE =           0.1334
          SWIADDTOCH =           0.0000            SWIADDTOCH =           0.0000

            TOTAL IN =   520303040.0000              TOTAL IN =           0.1684

          OUT:                                     OUT:
          ----                                     ----
             STORAGE =           0.0000               STORAGE =           0.0000
       CONSTANT HEAD =           0.0000         CONSTANT HEAD =           0.0000
               WELLS =           0.0000                 WELLS =           0.0000
       RIVER LEAKAGE =    21093852.0000         RIVER LEAKAGE =       6.6564E-03
                  ET =   161970320.0000                    ET =       5.1559E-02
     HEAD DEP BOUNDS =   337251424.0000       HEAD DEP BOUNDS =           0.1102
            RECHARGE =           0.0000              RECHARGE =           0.0000
          SWIADDTOCH =           0.0000            SWIADDTOCH =           0.0000

           TOTAL OUT =   520315584.0000             TOTAL OUT =           0.1684

            IN - OUT =      -12544.0000              IN - OUT =      -1.0431E-06

 PERCENT DISCREPANCY =          -0.00     PERCENT DISCREPANCY =          -0.00






         TIME SUMMARY AT END OF TIME STEP   49 IN STRESS PERIOD    1
                    SECONDS     MINUTES      HOURS       DAYS        YEARS
                    -----------------------------------------------------------
   TIME STEP LENGTH 6.30720E+07 1.05120E+06  17520.      730.00      1.9986    
 STRESS PERIOD TIME 3.09053E+09 5.15088E+07 8.58480E+05  35770.      97.933    
         TOTAL TIME 3.09053E+09 5.15088E+07 8.58480E+05  35770.      97.933    
1
 
 SOLVING FOR HEAD 
     2 CALLS TO PCG ROUTINE FOR TIME STEP  50 IN STRESS PERIOD    1
     8 TOTAL ITERATIONS

 MAXIMUM HEAD CHANGE FOR EACH ITERATION (1 INDICATES THE FIRST INNER ITERATION):

    HEAD CHANGE    HEAD CHANGE    HEAD CHANGE    HEAD CHANGE    HEAD CHANGE 
   LAYER,ROW,COL  LAYER,ROW,COL  LAYER,ROW,COL  LAYER,ROW,COL  LAYER,ROW,COL
 ---------------------------------------------------------------------------
  1 -0.4100E-02  0 -0.6107E-02  0  0.2015E-01  0 -0.1848E-01  0  0.7109E-02
   (  2, 30,  3)  (  2, 59, 34)  (  2, 59, 34)  (  2, 59, 34)  (  2, 59, 34)
  0 -0.3465E-02  0  0.4932E-03  1 -0.3109E-03
   (  2, 59, 34)  (  2, 22, 49)  (  2, 22, 49)

 MAXIMUM RESIDUAL FOR EACH ITERATION (1 INDICATES THE FIRST INNER ITERATION):

    RESIDUAL       RESIDUAL       RESIDUAL       RESIDUAL       RESIDUAL    
   LAYER,ROW,COL  LAYER,ROW,COL  LAYER,ROW,COL  LAYER,ROW,COL  LAYER,ROW,COL
 ---------------------------------------------------------------------------
  1 -0.1892E-04  0 -0.1631E-04  0 -0.1455E-04  0 -0.7542E-05  0 -0.5017E-05
   (  1, 30,  3)  (  1, 30,  3)  (  1, 30,  3)  (  1, 30,  3)  (  1, 30,  3)
  0  0.2154E-05  0  0.1862E-05  1  0.1787E-05
   (  2, 27,  3)  (  2, 27,  3)  (  2, 27,  3)



 OUTPUT CONTROL FOR STRESS PERIOD    1   TIME STEP   50
 Drawdown Reference will be reset at the end of this time step
    SAVE HEAD FOR ALL LAYERS
    SAVE DRAWDOWN FOR ALL LAYERS
    SAVE BUDGET
    PRINT BUDGET
 UBDSV2 SAVING "   CONSTANT HEAD" ON UNIT   9 AT TIME STEP 50, STRESS PERIOD   1
 UBDSV1 SAVING "FLOW RIGHT FACE " ON UNIT   9 AT TIME STEP 50, STRESS PERIOD   1
 UBDSV1 SAVING "FLOW FRONT FACE " ON UNIT   9 AT TIME STEP 50, STRESS PERIOD   1
 UBDSV1 SAVING "FLOW LOWER FACE " ON UNIT   9 AT TIME STEP 50, STRESS PERIOD   1
 UBDSV4 SAVING "           WELLS" ON UNIT   9 AT TIME STEP 50, STRESS PERIOD   1
 UBDSV4 SAVING "   RIVER LEAKAGE" ON UNIT   9 AT TIME STEP 50, STRESS PERIOD   1
 UBDSV3 SAVING "              ET" ON UNIT   9 AT TIME STEP 50, STRESS PERIOD   1
 UBDSV4 SAVING " HEAD DEP BOUNDS" ON UNIT   9 AT TIME STEP 50, STRESS PERIOD   1
 UBDSV3 SAVING "        RECHARGE" ON UNIT   9 AT TIME STEP 50, STRESS PERIOD   1
 SOLVING FOR ZETA FOR LAYER     1 ZONE     2
     2 CALLS TO PCG ROUTINE FOR TIME STEP  50 IN STRESS PERIOD    1
     4 TOTAL ITERATIONS

 MAXIMUM HEAD CHANGE FOR EACH ITERATION (1 INDICATES THE FIRST INNER ITERATION):

    HEAD CHANGE    HEAD CHANGE    HEAD CHANGE    HEAD CHANGE    HEAD CHANGE 
   LAYER,ROW,COL  LAYER,ROW,COL  LAYER,ROW,COL  LAYER,ROW,COL  LAYER,ROW,COL
 ---------------------------------------------------------------------------
  1 -0.2774      0 -0.1504E-01  0  0.3190E-03  1 -0.5086E-05
   (  1, 30,  3)  (  1, 29,  4)  (  1, 27,  3)  (  1, 30,  4)

 MAXIMUM RESIDUAL FOR EACH ITERATION (1 INDICATES THE FIRST INNER ITERATION):

    RESIDUAL       RESIDUAL       RESIDUAL       RESIDUAL       RESIDUAL    
   LAYER,ROW,COL  LAYER,ROW,COL  LAYER,ROW,COL  LAYER,ROW,COL  LAYER,ROW,COL
 ---------------------------------------------------------------------------
  1  0.1506E-05  0 -0.2455E-07  0  0.5532E-09  1  0.2466E-10
   (  1, 29,  4)  (  1, 27,  3)  (  1, 30,  4)  (  1, 31,  3)


 SOLVING FOR ZETA FOR LAYER     2 ZONE     2
     2 CALLS TO PCG ROUTINE FOR TIME STEP  50 IN STRESS PERIOD    1
     4 TOTAL ITERATIONS

 MAXIMUM HEAD CHANGE FOR EACH ITERATION (1 INDICATES THE FIRST INNER ITERATION):

    HEAD CHANGE    HEAD CHANGE    HEAD CHANGE    HEAD CHANGE    HEAD CHANGE 
   LAYER,ROW,COL  LAYER,ROW,COL  LAYER,ROW,COL  LAYER,ROW,COL  LAYER,ROW,COL
 ---------------------------------------------------------------------------
  1 -0.1344      0 -0.9700E-02  0 -0.5926E-03  1 -0.3132E-08
   (  1, 34,  4)  (  1, 33,  5)  (  1, 34,  4)  (  1, 31,  5)

 MAXIMUM RESIDUAL FOR EACH ITERATION (1 INDICATES THE FIRST INNER ITERATION):

    RESIDUAL       RESIDUAL       RESIDUAL       RESIDUAL       RESIDUAL    
   LAYER,ROW,COL  LAYER,ROW,COL  LAYER,ROW,COL  LAYER,ROW,COL  LAYER,ROW,COL
 ---------------------------------------------------------------------------
  1  0.9332E-06  0  0.6963E-07  0  0.1922E-14  1  0.8285E-14
   (  1, 33,  5)  (  1, 34,  4)  (  1,  9,  9)  (  1, 34,  4)


 UBUDSV SAVING "      ZETASRF  1" ON UNIT170 AT TIME STEP 50, STRESS PERIOD    1


                      VOLUMETRIC SWI ZONE BUDGET FOR ENTIRE MODEL
                     AT END OF TIME STEP   50 IN STRESS PERIOD   1
                                      ZONE     1
  -----------------------------------------------------------------------------------

        CUMULATIVE VOLUMES      L**3       RATES FOR THIS TIME STEP      L**3/T
        ------------------                 ------------------------

              IN:                                      IN:
              ---                                      ---
             BOUNDARIES =   506246112.0000            BOUNDARIES =           0.1608
          CONSTANT HEAD =           0.0000         CONSTANT HEAD =           0.0000
            ZONE CHANGE =    82680920.0000           ZONE CHANGE =       2.7174E-05
       ZONE CHG TIP/TOE =     3737359.7500      ZONE CHG TIP/TOE =           0.0000
            ZONE MIXING =           0.0000           ZONE MIXING =           0.0000

               TOTAL IN =   592664384.0000              TOTAL IN =           0.1608

             OUT:                                     OUT:
             ----                                     ----
             BOUNDARIES =   478536608.0000            BOUNDARIES =           0.1605
          CONSTANT HEAD =           0.0000         CONSTANT HEAD =           0.0000
            ZONE CHANGE =    22728784.0000           ZONE CHANGE =       2.8659E-04
       ZONE CHG TIP/TOE =     3390483.0000      ZONE CHG TIP/TOE =           0.0000
            ZONE MIXING =           0.0000           ZONE MIXING =           0.0000

              TOTAL OUT =   504655872.0000             TOTAL OUT =           0.1608

               IN - OUT =    88008512.0000              IN - OUT =      -1.8775E-06

    PERCENT DISCREPANCY =          16.04     PERCENT DISCREPANCY =          -0.00



                      VOLUMETRIC SWI ZONE BUDGET FOR ENTIRE MODEL
                     AT END OF TIME STEP   50 IN STRESS PERIOD   1
                                      ZONE     2
  -----------------------------------------------------------------------------------

        CUMULATIVE VOLUMES      L**3       RATES FOR THIS TIME STEP      L**3/T
        ------------------                 ------------------------

              IN:                                      IN:
              ---                                      ---
             BOUNDARIES =           0.0000            BOUNDARIES =           0.0000
          CONSTANT HEAD =           0.0000         CONSTANT HEAD =           0.0000
            ZONE CHANGE =    19540002.0000           ZONE CHANGE =       2.8630E-04
       ZONE CHG TIP/TOE =     3390483.0000      ZONE CHG TIP/TOE =           0.0000
            ZONE MIXING =           0.0000           ZONE MIXING =           0.0000

               TOTAL IN =    22930484.0000              TOTAL IN =       2.8630E-04

             OUT:                                     OUT:
             ----                                     ----
             BOUNDARIES =    27722404.0000            BOUNDARIES =       2.5852E-04
          CONSTANT HEAD =           0.0000         CONSTANT HEAD =           0.0000
            ZONE CHANGE =     2068470.1250           ZONE CHANGE =       2.4543E-05
       ZONE CHG TIP/TOE =     1424787.8750      ZONE CHG TIP/TOE =           0.0000
            ZONE MIXING =           0.0000           ZONE MIXING =           0.0000

              TOTAL OUT =    31215662.0000             TOTAL OUT =       2.8306E-04

               IN - OUT =    -8285178.0000              IN - OUT =       3.2352E-06

    PERCENT DISCREPANCY =         -30.60     PERCENT DISCREPANCY =           1.14


 HEAD WILL BE SAVED ON UNIT   37 AT END OF TIME STEP   50, STRESS PERIOD    1

 DRAWDOWN WILL BE SAVED ON UNIT   38 AT END OF TIME STEP   50, STRESS PERIOD    1
1
  VOLUMETRIC BUDGET FOR ENTIRE MODEL AT END OF TIME STEP   50, STRESS PERIOD   1
  ------------------------------------------------------------------------------

     CUMULATIVE VOLUMES      L**3       RATES FOR THIS TIME STEP      L**3/T
     ------------------                 ------------------------

           IN:                                      IN:
           ---                                      ---
             STORAGE =           0.0000               STORAGE =           0.0000
       CONSTANT HEAD =           0.0000         CONSTANT HEAD =           0.0000
               WELLS =           0.0000                 WELLS =           0.0000
       RIVER LEAKAGE =   110256952.0000         RIVER LEAKAGE =       3.5052E-02
                  ET =           0.0000                    ET =           0.0000
     HEAD DEP BOUNDS =           0.0000       HEAD DEP BOUNDS =           0.0000
            RECHARGE =   420670272.0000              RECHARGE =           0.1334
          SWIADDTOCH =           0.0000            SWIADDTOCH =           0.0000

            TOTAL IN =   530927232.0000              TOTAL IN =           0.1684

          OUT:                                     OUT:
          ----                                     ----
             STORAGE =           0.0000               STORAGE =           0.0000
       CONSTANT HEAD =           0.0000         CONSTANT HEAD =           0.0000
               WELLS =           0.0000                 WELLS =           0.0000
       RIVER LEAKAGE =    21513668.0000         RIVER LEAKAGE =       6.6561E-03
                  ET =   165222256.0000                    ET =       5.1559E-02
     HEAD DEP BOUNDS =   344203936.0000       HEAD DEP BOUNDS =           0.1102
            RECHARGE =           0.0000              RECHARGE =           0.0000
          SWIADDTOCH =           0.0000            SWIADDTOCH =           0.0000

           TOTAL OUT =   530939840.0000             TOTAL OUT =           0.1684

            IN - OUT =      -12608.0000              IN - OUT =      -9.9838E-07

 PERCENT DISCREPANCY =          -0.00     PERCENT DISCREPANCY =          -0.00



 Drawdown Reference has been reset to the end of this time step



         TIME SUMMARY AT END OF TIME STEP   50 IN STRESS PERIOD    1
                    SECONDS     MINUTES      HOURS       DAYS        YEARS
                    -----------------------------------------------------------
   TIME STEP LENGTH 6.30720E+07 1.05120E+06  17520.      730.00      1.9986    
 STRESS PERIOD TIME 3.15360E+09 5.25600E+07 8.76000E+05  36500.      99.932    
         TOTAL TIME 3.15360E+09 5.25600E+07 8.76000E+05  36500.      99.932    
1
1
                            STRESS PERIOD NO.    2, LENGTH =  0.1892160E+10
                            -----------------------------------------------

                              NUMBER OF TIME STEPS =   120

                               MULTIPLIER FOR DELT =     1.000

                            INITIAL TIME STEP SIZE =  0.1576800E+08

 WELL NO.  LAYER   ROW   COL   STRESS RATE         IFACE           
 ------------------------------------------------------------------
      1      1      4     29     -0.2000E-02       0.000    
      2      1     13     33     -0.2000E-02       0.000    
      3      1     22     21     -0.2000E-02       0.000    
      4      1     20     20     -0.2000E-02       0.000    
      5      1     26     22     -0.2000E-02       0.000    
      6      1     56     32     -0.2000E-02       0.000    
      7      1     38     33     -0.2000E-02       0.000    
      8      1     26     11     -0.2000E-02       0.000    
      9      1     64     39     -0.2000E-02       0.000    
     10      1     23     24     -0.2000E-02       0.000    
     11      1     36     31     -0.2000E-02       0.000    
     12      1     45     27     -0.2000E-02       0.000    
     13      1     17     38     -0.2000E-02       0.000    
     14      1     55     39     -0.2000E-02       0.000    
     15      1     29     25     -0.2000E-02       0.000    
     16      1     25     15     -0.2000E-02       0.000    
     17      1     47     26     -0.2000E-02       0.000    
     18      1     30     25     -0.2000E-02       0.000    
     19      1      5     33     -0.2000E-02       0.000    
     20      1     26     37     -0.2000E-02       0.000    
     21      1      7     12     -0.2000E-02       0.000    
     22      1     45     36     -0.2000E-02       0.000    
     23      1     17     24     -0.2000E-02       0.000    
     24      1     61     45     -0.2000E-02       0.000    
     25      1     28     15     -0.2000E-02       0.000    
     26      1     27     32     -0.2000E-02       0.000    
     27      1      8      9     -0.2000E-02       0.000    
     28      1     32     15     -0.2000E-02       0.000    
     29      1     39     20     -0.2000E-02       0.000    
     30      1     37     14     -0.2000E-02       0.000    
     31      1     25     27     -0.2000E-02       0.000    
     32      1      9     18     -0.2000E-02       0.000    
     33      1     16     31     -0.2000E-02       0.000    
     34      1     30      8     -0.2000E-02       0.000    
     35      1     36     13     -0.2000E-02       0.000    
     36      1     54     35     -0.2000E-02       0.000    
     37      1     32     30     -0.2000E-02       0.000    
     38      1     47     35     -0.2000E-02       0.000    
     39      1     13     13     -0.2000E-02       0.000    
     40      1     15     31     -0.2000E-02       0.000    
     41      1     24     18     -0.2000E-02       0.000    
     42      1     11     24     -0.2000E-02       0.000    
     43      1     50     30     -0.2000E-02       0.000    
     44      1     35     14     -0.2000E-02       0.000    
     45      1     64     41     -0.2000E-02       0.000    
     46      1     21     46     -0.2000E-02       0.000    
     47      1      5     19     -0.2000E-02       0.000    
     48      1     33     10     -0.2000E-02       0.000    
     49      1     33     22     -0.2000E-02       0.000    
     50      1     43     23     -0.2000E-02       0.000    
     51      1     37     17     -0.2000E-02       0.000    
     52      1     32     20     -0.2000E-02       0.000    
     53      1     33     35     -0.2000E-02       0.000    
     54      1     49     38     -0.2000E-02       0.000    
     55      1     13     14     -0.2000E-02       0.000    
     56      1     20     44     -0.2000E-02       0.000    
     57      1     42     21     -0.2000E-02       0.000    
     58      1     16     19     -0.2000E-02       0.000    
     59      1     31     33     -0.2000E-02       0.000    
     60      1      5     14     -0.2000E-02       0.000    
     61      1     10      9     -0.2000E-02       0.000    
     62      1     57     36     -0.2000E-02       0.000    
     63      1     49     25     -0.2000E-02       0.000    
     64      1     10     26     -0.2000E-02       0.000    
     65      1     28     30     -0.2000E-02       0.000    
     66      1      7     13     -0.2000E-02       0.000    
     67      1     59     42     -0.2000E-02       0.000    
     68      1      6     19     -0.2000E-02       0.000    
     69      1     46     32     -0.2000E-02       0.000    
     70      1      3     21     -0.2000E-02       0.000    
     71      1     66     44     -0.2000E-02       0.000    
     72      1     52     31     -0.2000E-02       0.000    
     73      1     24     33     -0.2000E-02       0.000    
     74      1      9     30     -0.2000E-02       0.000    
     75      1     63     46     -0.2000E-02       0.000    
     76      1     42     31     -0.2000E-02       0.000    
     77      1     34     10     -0.2000E-02       0.000    
     78      1     32     26     -0.2000E-02       0.000    
     79      1     25     19     -0.2000E-02       0.000    
     80      1     32     24     -0.2000E-02       0.000    
     81      1     42     25     -0.2000E-02       0.000    
     82      1     45     28     -0.2000E-02       0.000    
     83      1     17     27     -0.2000E-02       0.000    
     84      1     31     11     -0.2000E-02       0.000    
     85      1     23     33     -0.2000E-02       0.000    
     86      1     10     13     -0.2000E-02       0.000    
     87      1     34     16     -0.2000E-02       0.000    
     88      1     23     37     -0.2000E-02       0.000    
     89      1     34     35     -0.2000E-02       0.000    
     90      1     10     33     -0.2000E-02       0.000    
     91      1     28     19     -0.2000E-02       0.000    
     92      1     19     26     -0.2000E-02       0.000    
     93      1     20     23     -0.2000E-02       0.000    
     94      1     25      9     -0.2000E-02       0.000    
     95      1     60     35     -0.2000E-02       0.000    
     96      1     16     18     -0.2000E-02       0.000    
     97      1      6     24     -0.2000E-02       0.000    
     98      1     40     29     -0.2000E-02       0.000    
     99      1     12     22     -0.2000E-02       0.000    
    100      1     18     10     -0.5000E-02       0.000    
    101      1     18      8     -0.5000E-02       0.000    
    102      1     20      9     -0.5000E-02       0.000    
    103      1     20      8     -0.5000E-02       0.000    
    104      1     17     11     -0.5000E-02       0.000    
    105      1     16     11     -0.5000E-02       0.000    
    106      1     19     11     -0.5000E-02       0.000    
    107      1     14      8     -0.5000E-02       0.000    
    108      1     22     11     -0.5000E-02       0.000    
    109      1     20     11     -0.5000E-02       0.000    
    110      1     15      8     -0.5000E-02       0.000    
    111      1     22     10     -0.5000E-02       0.000    
    112      1     19      8     -0.5000E-02       0.000    
    113      1     21     13     -0.5000E-02       0.000    
    114      1     20      8     -0.5000E-02       0.000    
    115      1     20     10     -0.5000E-02       0.000    
    116      1     14      9     -0.5000E-02       0.000    
    117      1     20     14     -0.5000E-02       0.000    
    118      1     19     10     -0.5000E-02       0.000    
    119      1     18     12     -0.5000E-02       0.000    
    120      1     15     11     -0.5000E-02       0.000    
    121      1     19      9     -0.5000E-02       0.000    
    122      1     17      9     -0.5000E-02       0.000    
    123      1     22     11     -0.5000E-02       0.000    
    124      1     18     10     -0.5000E-02       0.000    
    125      1     15      9     -0.5000E-02       0.000    
    126      1     16      9     -0.5000E-02       0.000    
    127      1     19     12     -0.5000E-02       0.000    
    128      1     18     13     -0.5000E-02       0.000    
    129      1     17     10     -0.5000E-02       0.000    
    130      1     18     11     -0.5000E-02       0.000    
    131      1     22      9     -0.5000E-02       0.000    
    132      1     16     10     -0.5000E-02       0.000    
    133      1     15     10     -0.5000E-02       0.000    
    134      1     23      9     -0.5000E-02       0.000    
    135      1     17      8     -0.5000E-02       0.000    
    136      1     17     13     -0.5000E-02       0.000    
    137      1     21     11     -0.5000E-02       0.000    
    138      1     16      8     -0.5000E-02       0.000    
    139      1     20      9     -0.5000E-02       0.000    
    140      1     21      9     -0.5000E-02       0.000    
    141      1     16      7     -0.5000E-02       0.000    
    142      1     16     13     -0.5000E-02       0.000    
    143      1     18      9     -0.5000E-02       0.000    
    144      1     13     10     -0.5000E-02       0.000    
    145      1     17     11     -0.5000E-02       0.000    
    146      1     21     15     -0.5000E-02       0.000    
    147      1     15     12     -0.5000E-02       0.000    
    148      1     23     13     -0.5000E-02       0.000    
    149      1     18     15     -0.5000E-02       0.000    

    149 WELLS

 REUSING NON-PARAMETER RIVER REACHES FROM LAST STRESS PERIOD

     79 RIVER REACHES

 REUSING SURF FROM LAST STRESS PERIOD

 REUSING EVTR FROM LAST STRESS PERIOD

 REUSING EXDP FROM LAST STRESS PERIOD

 REUSING NON-PARAMETER GHB CELLS FROM LAST STRESS PERIOD

    109 GHB CELLS



                           RECHARGE
 READING ON UNIT   24 WITH FORMAT: (FREE)              

            1           2           3           4           5           6           7           8           9          10
           11          12          13          14          15          16          17          18          19          20
           21          22          23          24          25          26          27          28          29          30
           31          32          33          34          35          36          37          38          39          40
           41          42          43          44          45          46          47          48          49          50
           51          52
 ........................................................................................................................
   1    0.000       0.000       0.000       0.000       0.000       0.000       0.000       0.000       0.000       0.000    
        0.000       0.000       0.000       0.000       0.000       0.000       0.000       0.000       0.000       0.000    
       4.7565E-09  4.7565E-09  4.7565E-09  4.7565E-09  4.7565E-09  4.7565E-09  4.7565E-09  4.7565E-09  4.7565E-09   0.000    
        0.000       0.000       0.000       0.000       0.000       0.000       0.000       0.000       0.000       0.000    
        0.000       0.000       0.000       0.000       0.000       0.000       0.000       0.000       0.000       0.000    
        0.000       0.000    
   2    0.000       0.000       0.000       0.000       0.000       0.000       0.000       0.000       0.000       0.000    
        0.000       0.000       0.000       0.000       0.000       0.000       0.000       0.000       0.000      4.7565E-09
       4.7565E-09  4.7565E-09  4.7565E-09  4.7565E-09  4.7565E-09  4.7565E-09  4.7565E-09  4.7565E-09  4.7565E-09  4.7565E-09
       4.7565E-09   0.000       0.000       0.000       0.000       0.000       0.000       0.000       0.000       0.000    
        0.000       0.000       0.000       0.000       0.000       0.000       0.000       0.000       0.000       0.000    
        0.000       0.000    
   3    0.000       0.000       0.000       0.000       0.000       0.000       0.000       0.000       0.000       0.000    
        0.000       0.000       0.000       0.000       0.000       0.000       0.000      4.7565E-09  4.7565E-09  4.7565E-09
       4.7565E-09  4.7565E-09  4.7565E-09  4.7565E-09  4.7565E-09  4.7565E-09  4.7565E-09  4.7565E-09  4.7565E-09  4.7565E-09
       4.7565E-09  4.7565E-09  4.7565E-09   0.000       0.000       0.000       0.000       0.000       0.000       0.000    
        0.000       0.000       0.000       0.000       0.000       0.000       0.000       0.000       0.000       0.000    
        0.000       0.000    
   4    0.000       0.000       0.000       0.000       0.000       0.000       0.000       0.000       0.000       0.000    
       4.7565E-09  4.7565E-09  4.7565E-09  4.7565E-09  4.7565E-09  4.7565E-09  4.7565E-09  4.7565E-09  4.7565E-09  4.7565E-09
       4.7565E-09  4.7565E-09  4.7565E-09  4.7565E-09  4.7565E-09  4.7565E-09  4.7565E-09  4.7565E-09  4.7565E-09  4.7565E-09
       4.7565E-09  4.7565E-09  4.7565E-09  4.7565E-09  4.7565E-09   0.000       0.000       0.000       0.000       0.000    
        0.000       0.000       0.000       0.000       0.000       0.000       0.000       0.000       0.000       0.000    
        0.000       0.000    
   5    0.000       0.000       0.000       0.000       0.000       0.000       0.000      4.7565E-09  4.7565E-09  4.7565E-09
       4.7565E-09  4.7565E-09  4.7565E-09  4.7565E-09  4.7565E-09  4.7565E-09  4.7565E-09  4.7565E-09  4.7565E-09  4.7565E-09
       4.7565E-09  4.7565E-09  4.7565E-09  4.7565E-09  4.7565E-09  4.7565E-09  4.7565E-09  4.7565E-09  4.7565E-09  4.7565E-09
       4.7565E-09  4.7565E-09  4.7565E-09  4.7565E-09  4.7565E-09  4.7565E-09   0.000       0.000       0.000       0.000    
        0.000       0.000       0.000       0.000       0.000       0.000       0.000       0.000       0.000       0.000    
        0.000       0.000    
   6    0.000       0.000       0.000       0.000       0.000       0.000       0.000      4.7565E-09  4.7565E-09  4.7565E-09
       4.7565E-09  4.7565E-09  4.7565E-09  4.7565E-09  4.7565E-09  4.7565E-09  4.7565E-09  4.7565E-09  4.7565E-09  4.7565E-09
       4.7565E-09  4.7565E-09  4.7565E-09  4.7565E-09  4.7565E-09  4.7565E-09  4.7565E-09  4.7565E-09  4.7565E-09  4.7565E-09
       4.7565E-09  4.7565E-09  4.7565E-09  4.7565E-09  4.7565E-09  4.7565E-09   0.000       0.000       0.000       0.000    
        0.000       0.000       0.000       0.000       0.000       0.000       0.000       0.000       0.000       0.000    
        0.000       0.000    
   7    0.000       0.000       0.000       0.000       0.000       0.000       0.000      4.7565E-09  4.7565E-09  4.7565E-09
       4.7565E-09  4.7565E-09  4.7565E-09  4.7565E-09  4.7565E-09  4.7565E-09  4.7565E-09  4.7565E-09  4.7565E-09  4.7565E-09
       4.7565E-09  4.7565E-09  4.7565E-09  4.7565E-09  4.7565E-09  4.7565E-09  4.7565E-09  4.7565E-09  4.7565E-09  4.7565E-09
       4.7565E-09  4.7565E-09  4.7565E-09  4.7565E-09  4.7565E-09  4.7565E-09   0.000       0.000       0.000       0.000    
        0.000       0.000       0.000       0.000       0.000       0.000       0.000       0.000       0.000       0.000    
        0.000       0.000    
   8    0.000       0.000       0.000       0.000       0.000       0.000       0.000      4.7565E-09  4.7565E-09  4.7565E-09
       4.7565E-09  4.7565E-09  4.7565E-09  4.7565E-09  4.7565E-09  4.7565E-09  4.7565E-09  4.7565E-09  4.7565E-09  4.7565E-09
       4.7565E-09  4.7565E-09  4.7565E-09  4.7565E-09  4.7565E-09  4.7565E-09  4.7565E-09  4.7565E-09  4.7565E-09  4.7565E-09
       4.7565E-09  4.7565E-09  4.7565E-09  4.7565E-09  4.7565E-09  4.7565E-09   0.000       0.000       0.000       0.000    
        0.000       0.000       0.000       0.000       0.000       0.000       0.000       0.000       0.000       0.000    
        0.000       0.000    
   9    0.000       0.000       0.000       0.000       0.000       0.000       0.000      4.7565E-09  4.7565E-09  4.7565E-09
       4.7565E-09  4.7565E-09  4.7565E-09  4.7565E-09  4.7565E-09  4.7565E-09  4.7565E-09  4.7565E-09  4.7565E-09  4.7565E-09
       4.7565E-09  4.7565E-09  4.7565E-09  4.7565E-09  4.7565E-09  4.7565E-09  4.7565E-09  4.7565E-09  4.7565E-09  4.7565E-09
       4.7565E-09  4.7565E-09  4.7565E-09  4.7565E-09  4.7565E-09   0.000       0.000       0.000       0.000       0.000    
        0.000       0.000       0.000       0.000       0.000       0.000       0.000       0.000       0.000       0.000    
        0.000       0.000    
  10    0.000       0.000       0.000       0.000       0.000       0.000       0.000      4.7565E-09  4.7565E-09  4.7565E-09
       4.7565E-09  4.7565E-09  4.7565E-09  4.7565E-09  4.7565E-09  4.7565E-09  4.7565E-09  4.7565E-09  4.7565E-09  4.7565E-09
       4.7565E-09  4.7565E-09  4.7565E-09  4.7565E-09  4.7565E-09  4.7565E-09  4.7565E-09  4.7565E-09  4.7565E-09  4.7565E-09
       4.7565E-09  4.7565E-09  4.7565E-09  4.7565E-09  4.7565E-09   0.000       0.000       0.000       0.000       0.000    
        0.000       0.000       0.000       0.000       0.000       0.000       0.000       0.000       0.000       0.000    
        0.000       0.000    
  11    0.000       0.000       0.000       0.000       0.000       0.000       0.000      4.7565E-09  4.7565E-09  4.7565E-09
       4.7565E-09  4.7565E-09  4.7565E-09  4.7565E-09  4.7565E-09  4.7565E-09  4.7565E-09  4.7565E-09  4.7565E-09  4.7565E-09
       4.7565E-09  4.7565E-09  4.7565E-09  4.7565E-09  4.7565E-09  4.7565E-09  4.7565E-09  4.7565E-09  4.7565E-09  4.7565E-09
       4.7565E-09  4.7565E-09  4.7565E-09  4.7565E-09  4.7565E-09   0.000       0.000       0.000       0.000       0.000    
        0.000       0.000       0.000       0.000       0.000       0.000       0.000       0.000       0.000       0.000    
        0.000       0.000    
  12    0.000       0.000       0.000       0.000       0.000       0.000       0.000      4.7565E-09  4.7565E-09  4.7565E-09
       4.7565E-09  4.7565E-09  4.7565E-09  4.7565E-09  4.7565E-09  4.7565E-09  4.7565E-09  4.7565E-09  4.7565E-09  4.7565E-09
       4.7565E-09  4.7565E-09  4.7565E-09  4.7565E-09  4.7565E-09  4.7565E-09  4.7565E-09  4.7565E-09  4.7565E-09  4.7565E-09
       4.7565E-09  4.7565E-09  4.7565E-09  4.7565E-09  4.7565E-09   0.000       0.000       0.000       0.000       0.000    
        0.000       0.000       0.000       0.000       0.000       0.000       0.000       0.000       0.000       0.000    
        0.000       0.000    
  13    0.000       0.000       0.000       0.000       0.000       0.000       0.000      4.7565E-09  4.7565E-09  4.7565E-09
       4.7565E-09  4.7565E-09  4.7565E-09  4.7565E-09  4.7565E-09  4.7565E-09  4.7565E-09  4.7565E-09  4.7565E-09  4.7565E-09
       4.7565E-09  4.7565E-09  4.7565E-09  4.7565E-09  4.7565E-09  4.7565E-09  4.7565E-09  4.7565E-09  4.7565E-09  4.7565E-09
       4.7565E-09  4.7565E-09  4.7565E-09  4.7565E-09  4.7565E-09   0.000       0.000       0.000       0.000       0.000    
        0.000       0.000       0.000       0.000       0.000       0.000       0.000       0.000       0.000       0.000    
        0.000       0.000    
  14    0.000       0.000       0.000       0.000       0.000       0.000       0.000      4.7565E-09  4.7565E-09  4.7565E-09
       4.7565E-09  4.7565E-09  4.7565E-09  4.7565E-09  4.7565E-09  4.7565E-09  4.7565E-09  4.7565E-09  4.7565E-09  4.7565E-09
       4.7565E-09  4.7565E-09  4.7565E-09  4.7565E-09  4.7565E-09  4.7565E-09  4.7565E-09  4.7565E-09  4.7565E-09  4.7565E-09
       4.7565E-09  4.7565E-09  4.7565E-09  4.7565E-09  4.7565E-09   0.000       0.000       0.000       0.000       0.000    
        0.000       0.000       0.000       0.000       0.000       0.000       0.000       0.000       0.000       0.000    
        0.000       0.000    
  15    0.000       0.000       0.000       0.000       0.000       0.000       0.000      4.7565E-09  4.7565E-09  4.7565E-09
       4.7565E-09  4.7565E-09  4.7565E-09  4.7565E-09  4.7565E-09  4.7565E-09  4.7565E-09  4.7565E-09  4.7565E-09  4.7565E-09
       4.7565E-09  4.7565E-09  4.7565E-09  4.7565E-09  4.7565E-09  4.7565E-09  4.7565E-09  4.7565E-09  4.7565E-09  4.7565E-09
       4.7565E-09  4.7565E-09  4.7565E-09  4.7565E-09  4.7565E-09  4.7565E-09   0.000       0.000       0.000       0.000    
        0.000       0.000       0.000       0.000       0.000       0.000       0.000       0.000       0.000       0.000    
        0.000       0.000    
  16    0.000       0.000       0.000       0.000       0.000       0.000       0.000      4.7565E-09  4.7565E-09  4.7565E-09
       4.7565E-09  4.7565E-09  4.7565E-09  4.7565E-09  4.7565E-09  4.7565E-09  4.7565E-09  4.7565E-09  4.7565E-09  4.7565E-09
       4.7565E-09  4.7565E-09  4.7565E-09  4.7565E-09  4.7565E-09  4.7565E-09  4.7565E-09  4.7565E-09  4.7565E-09  4.7565E-09
       4.7565E-09  4.7565E-09  4.7565E-09  4.7565E-09  4.7565E-09  4.7565E-09  4.7565E-09   0.000       0.000       0.000    
        0.000       0.000       0.000       0.000       0.000       0.000       0.000       0.000       0.000       0.000    
        0.000       0.000    
  17    0.000       0.000       0.000       0.000       0.000       0.000       0.000      4.7565E-09  4.7565E-09  4.7565E-09
       4.7565E-09  4.7565E-09  4.7565E-09  4.7565E-09  4.7565E-09  4.7565E-09  4.7565E-09  4.7565E-09  4.7565E-09  4.7565E-09
       4.7565E-09  4.7565E-09  4.7565E-09  4.7565E-09  4.7565E-09  4.7565E-09  4.7565E-09  4.7565E-09  4.7565E-09  4.7565E-09
       4.7565E-09  4.7565E-09  4.7565E-09  4.7565E-09  4.7565E-09  4.7565E-09  4.7565E-09  4.7565E-09  4.7565E-09  4.7565E-09
        0.000       0.000       0.000       0.000       0.000       0.000       0.000       0.000       0.000       0.000    
        0.000       0.000    
  18    0.000       0.000       0.000       0.000       0.000       0.000       0.000      4.7565E-09  4.7565E-09  4.7565E-09
       4.7565E-09  4.7565E-09  4.7565E-09  4.7565E-09  4.7565E-09  4.7565E-09  4.7565E-09  4.7565E-09  4.7565E-09  4.7565E-09
       4.7565E-09  4.7565E-09  4.7565E-09  4.7565E-09  4.7565E-09  4.7565E-09  4.7565E-09  4.7565E-09  4.7565E-09  4.7565E-09
       4.7565E-09  4.7565E-09  4.7565E-09  4.7565E-09  4.7565E-09  4.7565E-09  4.7565E-09  4.7565E-09  4.7565E-09  4.7565E-09
       4.7565E-09  4.7565E-09  4.7565E-09  4.7565E-09   0.000       0.000       0.000       0.000       0.000       0.000    
        0.000       0.000    
  19    0.000       0.000       0.000       0.000       0.000       0.000       0.000      4.7565E-09  4.7565E-09  4.7565E-09
       4.7565E-09  4.7565E-09  4.7565E-09  4.7565E-09  4.7565E-09  4.7565E-09  4.7565E-09  4.7565E-09  4.7565E-09  4.7565E-09
       4.7565E-09  4.7565E-09  4.7565E-09  4.7565E-09  4.7565E-09  4.7565E-09  4.7565E-09  4.7565E-09  4.7565E-09  4.7565E-09
       4.7565E-09  4.7565E-09  4.7565E-09  4.7565E-09  4.7565E-09  4.7565E-09  4.7565E-09  4.7565E-09  4.7565E-09  4.7565E-09
       4.7565E-09  4.7565E-09  4.7565E-09  4.7565E-09  4.7565E-09  4.7565E-09  4.7565E-09  4.7565E-09  4.7565E-09  4.7565E-09
       4.7565E-09  4.7565E-09
  20    0.000       0.000       0.000       0.000       0.000       0.000       0.000      4.7565E-09  4.7565E-09  4.7565E-09
       4.7565E-09  4.7565E-09  4.7565E-09  4.7565E-09  4.7565E-09  4.7565E-09  4.7565E-09  4.7565E-09  4.7565E-09  4.7565E-09
       4.7565E-09  4.7565E-09  4.7565E-09  4.7565E-09  4.7565E-09  4.7565E-09  4.7565E-09  4.7565E-09  4.7565E-09  4.7565E-09
       4.7565E-09  4.7565E-09  4.7565E-09  4.7565E-09  4.7565E-09  4.7565E-09  4.7565E-09  4.7565E-09  4.7565E-09  4.7565E-09
       4.7565E-09  4.7565E-09  4.7565E-09  4.7565E-09  4.7565E-09  4.7565E-09  4.7565E-09  4.7565E-09  4.7565E-09  4.7565E-09
       4.7565E-09  4.7565E-09
  21    0.000       0.000       0.000       0.000       0.000       0.000       0.000      4.7565E-09  4.7565E-09  4.7565E-09
       4.7565E-09  4.7565E-09  4.7565E-09  4.7565E-09  4.7565E-09  4.7565E-09  4.7565E-09  4.7565E-09  4.7565E-09  4.7565E-09
       4.7565E-09  4.7565E-09  4.7565E-09  4.7565E-09  4.7565E-09  4.7565E-09  4.7565E-09  4.7565E-09  4.7565E-09  4.7565E-09
       4.7565E-09  4.7565E-09  4.7565E-09  4.7565E-09  4.7565E-09  4.7565E-09  4.7565E-09  4.7565E-09  4.7565E-09  4.7565E-09
       4.7565E-09  4.7565E-09  4.7565E-09  4.7565E-09  4.7565E-09  4.7565E-09  4.7565E-09  4.7565E-09  4.7565E-09  4.7565E-09
       4.7565E-09   0.000    
  22    0.000       0.000       0.000       0.000       0.000       0.000       0.000      4.7565E-09  4.7565E-09  4.7565E-09
       4.7565E-09  4.7565E-09  4.7565E-09  4.7565E-09  4.7565E-09  4.7565E-09  4.7565E-09  4.7565E-09  4.7565E-09  4.7565E-09
       4.7565E-09  4.7565E-09  4.7565E-09  4.7565E-09  4.7565E-09  4.7565E-09  4.7565E-09  4.7565E-09  4.7565E-09  4.7565E-09
       4.7565E-09  4.7565E-09  4.7565E-09  4.7565E-09  4.7565E-09  4.7565E-09   0.000      4.7565E-09  4.7565E-09  4.7565E-09
       4.7565E-09  4.7565E-09  4.7565E-09  4.7565E-09  4.7565E-09  4.7565E-09  4.7565E-09  4.7565E-09  4.7565E-09   0.000    
        0.000       0.000    
  23    0.000       0.000       0.000       0.000       0.000       0.000       0.000      4.7565E-09  4.7565E-09  4.7565E-09
       4.7565E-09  4.7565E-09  4.7565E-09  4.7565E-09  4.7565E-09  4.7565E-09  4.7565E-09  4.7565E-09  4.7565E-09  4.7565E-09
       4.7565E-09  4.7565E-09  4.7565E-09  4.7565E-09  4.7565E-09  4.7565E-09  4.7565E-09  4.7565E-09  4.7565E-09  4.7565E-09
       4.7565E-09  4.7565E-09  4.7565E-09  4.7565E-09  4.7565E-09  4.7565E-09  4.7565E-09   0.000       0.000       0.000    
       4.7565E-09  4.7565E-09  4.7565E-09  4.7565E-09  4.7565E-09  4.7565E-09  4.7565E-09  4.7565E-09   0.000       0.000    
        0.000       0.000    
  24    0.000       0.000       0.000       0.000       0.000       0.000       0.000      4.7565E-09  4.7565E-09  4.7565E-09
       4.7565E-09  4.7565E-09  4.7565E-09  4.7565E-09  4.7565E-09  4.7565E-09  4.7565E-09  4.7565E-09  4.7565E-09  4.7565E-09
       4.7565E-09  4.7565E-09  4.7565E-09  4.7565E-09  4.7565E-09  4.7565E-09  4.7565E-09  4.7565E-09  4.7565E-09  4.7565E-09
       4.7565E-09  4.7565E-09  4.7565E-09  4.7565E-09  4.7565E-09  4.7565E-09  4.7565E-09   0.000       0.000       0.000    
        0.000       0.000       0.000       0.000       0.000       0.000      4.7565E-09   0.000       0.000       0.000    
        0.000       0.000    
  25    0.000       0.000       0.000       0.000       0.000       0.000       0.000      4.7565E-09  4.7565E-09  4.7565E-09
       4.7565E-09  4.7565E-09  4.7565E-09  4.7565E-09  4.7565E-09  4.7565E-09  4.7565E-09  4.7565E-09  4.7565E-09  4.7565E-09
       4.7565E-09  4.7565E-09  4.7565E-09  4.7565E-09  4.7565E-09  4.7565E-09  4.7565E-09  4.7565E-09  4.7565E-09  4.7565E-09
       4.7565E-09  4.7565E-09  4.7565E-09  4.7565E-09  4.7565E-09  4.7565E-09  4.7565E-09   0.000       0.000       0.000    
        0.000       0.000       0.000       0.000       0.000       0.000       0.000       0.000       0.000       0.000    
        0.000       0.000    
  26    0.000       0.000       0.000       0.000       0.000       0.000       0.000      4.7565E-09  4.7565E-09  4.7565E-09
       4.7565E-09  4.7565E-09  4.7565E-09  4.7565E-09  4.7565E-09  4.7565E-09  4.7565E-09  4.7565E-09  4.7565E-09  4.7565E-09
       4.7565E-09  4.7565E-09  4.7565E-09  4.7565E-09  4.7565E-09  4.7565E-09  4.7565E-09  4.7565E-09  4.7565E-09  4.7565E-09
       4.7565E-09  4.7565E-09  4.7565E-09  4.7565E-09  4.7565E-09  4.7565E-09  4.7565E-09   0.000       0.000       0.000    
        0.000       0.000       0.000       0.000       0.000       0.000       0.000       0.000       0.000       0.000    
        0.000       0.000    
  27    0.000       0.000       0.000       0.000       0.000       0.000       0.000       0.000      4.7565E-09  4.7565E-09
       4.7565E-09  4.7565E-09  4.7565E-09  4.7565E-09  4.7565E-09  4.7565E-09  4.7565E-09  4.7565E-09  4.7565E-09  4.7565E-09
       4.7565E-09  4.7565E-09  4.7565E-09  4.7565E-09  4.7565E-09  4.7565E-09  4.7565E-09  4.7565E-09  4.7565E-09  4.7565E-09
       4.7565E-09  4.7565E-09  4.7565E-09  4.7565E-09  4.7565E-09  4.7565E-09  4.7565E-09   0.000       0.000       0.000    
        0.000       0.000       0.000       0.000       0.000       0.000       0.000       0.000       0.000       0.000    
        0.000       0.000    
  28    0.000       0.000       0.000       0.000       0.000       0.000       0.000       0.000      4.7565E-09  4.7565E-09
       4.7565E-09  4.7565E-09  4.7565E-09  4.7565E-09  4.7565E-09  4.7565E-09  4.7565E-09  4.7565E-09  4.7565E-09  4.7565E-09
       4.7565E-09  4.7565E-09  4.7565E-09  4.7565E-09  4.7565E-09  4.7565E-09  4.7565E-09  4.7565E-09  4.7565E-09  4.7565E-09
       4.7565E-09  4.7565E-09  4.7565E-09  4.7565E-09  4.7565E-09  4.7565E-09  4.7565E-09   0.000       0.000       0.000    
        0.000       0.000       0.000       0.000       0.000       0.000       0.000       0.000       0.000       0.000    
        0.000       0.000    
  29    0.000       0.000       0.000       0.000       0.000       0.000       0.000       0.000      4.7565E-09  4.7565E-09
       4.7565E-09  4.7565E-09  4.7565E-09  4.7565E-09  4.7565E-09  4.7565E-09  4.7565E-09  4.7565E-09  4.7565E-09  4.7565E-09
       4.7565E-09  4.7565E-09  4.7565E-09  4.7565E-09  4.7565E-09  4.7565E-09  4.7565E-09  4.7565E-09  4.7565E-09  4.7565E-09
       4.7565E-09  4.7565E-09  4.7565E-09  4.7565E-09  4.7565E-09  4.7565E-09  4.7565E-09   0.000       0.000       0.000    
        0.000       0.000       0.000       0.000       0.000       0.000       0.000       0.000       0.000       0.000    
        0.000       0.000    
  30    0.000       0.000       0.000       0.000       0.000       0.000       0.000       0.000      4.7565E-09  4.7565E-09
       4.7565E-09  4.7565E-09  4.7565E-09  4.7565E-09  4.7565E-09  4.7565E-09  4.7565E-09  4.7565E-09  4.7565E-09  4.7565E-09
       4.7565E-09  4.7565E-09  4.7565E-09  4.7565E-09  4.7565E-09  4.7565E-09  4.7565E-09  4.7565E-09  4.7565E-09  4.7565E-09
       4.7565E-09  4.7565E-09  4.7565E-09  4.7565E-09  4.7565E-09  4.7565E-09   0.000       0.000       0.000       0.000    
        0.000       0.000       0.000       0.000       0.000       0.000       0.000       0.000       0.000       0.000    
        0.000       0.000    
  31    0.000       0.000       0.000       0.000       0.000       0.000       0.000       0.000      4.7565E-09  4.7565E-09
       4.7565E-09  4.7565E-09  4.7565E-09  4.7565E-09  4.7565E-09  4.7565E-09  4.7565E-09  4.7565E-09  4.7565E-09  4.7565E-09
       4.7565E-09  4.7565E-09  4.7565E-09  4.7565E-09  4.7565E-09  4.7565E-09  4.7565E-09  4.7565E-09  4.7565E-09  4.7565E-09
       4.7565E-09  4.7565E-09  4.7565E-09  4.7565E-09  4.7565E-09  4.7565E-09   0.000       0.000       0.000       0.000    
        0.000       0.000       0.000       0.000       0.000       0.000       0.000       0.000       0.000       0.000    
        0.000       0.000    
  32    0.000       0.000       0.000       0.000       0.000       0.000       0.000       0.000      4.7565E-09  4.7565E-09
       4.7565E-09  4.7565E-09  4.7565E-09  4.7565E-09  4.7565E-09  4.7565E-09  4.7565E-09  4.7565E-09  4.7565E-09  4.7565E-09
       4.7565E-09  4.7565E-09  4.7565E-09  4.7565E-09  4.7565E-09  4.7565E-09  4.7565E-09  4.7565E-09  4.7565E-09  4.7565E-09
       4.7565E-09  4.7565E-09  4.7565E-09  4.7565E-09  4.7565E-09  4.7565E-09   0.000       0.000       0.000       0.000    
        0.000       0.000       0.000       0.000       0.000       0.000       0.000       0.000       0.000       0.000    
        0.000       0.000    
  33    0.000       0.000       0.000       0.000       0.000       0.000       0.000       0.000      4.7565E-09  4.7565E-09
       4.7565E-09  4.7565E-09  4.7565E-09  4.7565E-09  4.7565E-09  4.7565E-09  4.7565E-09  4.7565E-09  4.7565E-09  4.7565E-09
       4.7565E-09  4.7565E-09  4.7565E-09  4.7565E-09  4.7565E-09  4.7565E-09  4.7565E-09  4.7565E-09  4.7565E-09  4.7565E-09
       4.7565E-09  4.7565E-09  4.7565E-09  4.7565E-09  4.7565E-09  4.7565E-09   0.000       0.000       0.000       0.000    
        0.000       0.000       0.000       0.000       0.000       0.000       0.000       0.000       0.000       0.000    
        0.000       0.000    
  34    0.000       0.000       0.000       0.000       0.000       0.000       0.000       0.000       0.000      4.7565E-09
       4.7565E-09  4.7565E-09  4.7565E-09  4.7565E-09  4.7565E-09  4.7565E-09  4.7565E-09  4.7565E-09  4.7565E-09  4.7565E-09
       4.7565E-09  4.7565E-09  4.7565E-09  4.7565E-09  4.7565E-09  4.7565E-09  4.7565E-09  4.7565E-09  4.7565E-09  4.7565E-09
       4.7565E-09  4.7565E-09  4.7565E-09  4.7565E-09  4.7565E-09  4.7565E-09   0.000       0.000       0.000       0.000    
        0.000       0.000       0.000       0.000       0.000       0.000       0.000       0.000       0.000       0.000    
        0.000       0.000    
  35    0.000       0.000       0.000       0.000       0.000       0.000       0.000       0.000       0.000      4.7565E-09
       4.7565E-09  4.7565E-09  4.7565E-09  4.7565E-09  4.7565E-09  4.7565E-09  4.7565E-09  4.7565E-09  4.7565E-09  4.7565E-09
       4.7565E-09  4.7565E-09  4.7565E-09  4.7565E-09  4.7565E-09  4.7565E-09  4.7565E-09  4.7565E-09  4.7565E-09  4.7565E-09
       4.7565E-09  4.7565E-09  4.7565E-09  4.7565E-09  4.7565E-09  4.7565E-09   0.000       0.000       0.000       0.000    
        0.000       0.000       0.000       0.000       0.000       0.000       0.000       0.000       0.000       0.000    
        0.000       0.000    
  36    0.000       0.000       0.000       0.000       0.000       0.000       0.000       0.000       0.000       0.000    
       4.7565E-09  4.7565E-09  4.7565E-09  4.7565E-09  4.7565E-09  4.7565E-09  4.7565E-09  4.7565E-09  4.7565E-09  4.7565E-09
       4.7565E-09  4.7565E-09  4.7565E-09  4.7565E-09  4.7565E-09  4.7565E-09  4.7565E-09  4.7565E-09  4.7565E-09  4.7565E-09
       4.7565E-09  4.7565E-09  4.7565E-09  4.7565E-09  4.7565E-09  4.7565E-09   0.000       0.000       0.000       0.000    
        0.000       0.000       0.000       0.000       0.000       0.000       0.000       0.000       0.000       0.000    
        0.000       0.000    
  37    0.000       0.000       0.000       0.000       0.000       0.000       0.000       0.000       0.000       0.000    
       4.7565E-09  4.7565E-09  4.7565E-09  4.7565E-09  4.7565E-09  4.7565E-09  4.7565E-09  4.7565E-09  4.7565E-09  4.7565E-09
       4.7565E-09  4.7565E-09  4.7565E-09  4.7565E-09  4.7565E-09  4.7565E-09  4.7565E-09  4.7565E-09  4.7565E-09  4.7565E-09
       4.7565E-09  4.7565E-09  4.7565E-09  4.7565E-09  4.7565E-09  4.7565E-09   0.000       0.000       0.000       0.000    
        0.000       0.000       0.000       0.000       0.000       0.000       0.000       0.000       0.000       0.000    
        0.000       0.000    
  38    0.000       0.000       0.000       0.000       0.000       0.000       0.000       0.000       0.000       0.000    
        0.000       0.000       0.000      4.7565E-09  4.7565E-09  4.7565E-09  4.7565E-09  4.7565E-09  4.7565E-09  4.7565E-09
       4.7565E-09  4.7565E-09  4.7565E-09  4.7565E-09  4.7565E-09  4.7565E-09  4.7565E-09  4.7565E-09  4.7565E-09  4.7565E-09
       4.7565E-09  4.7565E-09  4.7565E-09  4.7565E-09  4.7565E-09  4.7565E-09  4.7565E-09   0.000       0.000       0.000    
        0.000       0.000       0.000       0.000       0.000       0.000       0.000       0.000       0.000       0.000    
        0.000       0.000    
  39    0.000       0.000       0.000       0.000       0.000       0.000       0.000       0.000       0.000       0.000    
        0.000       0.000       0.000       0.000       0.000       0.000      4.7565E-09  4.7565E-09  4.7565E-09  4.7565E-09
       4.7565E-09  4.7565E-09  4.7565E-09  4.7565E-09  4.7565E-09  4.7565E-09  4.7565E-09  4.7565E-09  4.7565E-09  4.7565E-09
       4.7565E-09  4.7565E-09  4.7565E-09  4.7565E-09  4.7565E-09  4.7565E-09  4.7565E-09   0.000       0.000       0.000    
        0.000       0.000       0.000       0.000       0.000       0.000       0.000       0.000       0.000       0.000    
        0.000       0.000    
  40    0.000       0.000       0.000       0.000       0.000       0.000       0.000       0.000       0.000       0.000    
        0.000       0.000       0.000       0.000       0.000       0.000       0.000      4.7565E-09  4.7565E-09  4.7565E-09
       4.7565E-09  4.7565E-09  4.7565E-09  4.7565E-09  4.7565E-09  4.7565E-09  4.7565E-09  4.7565E-09  4.7565E-09  4.7565E-09
       4.7565E-09  4.7565E-09  4.7565E-09  4.7565E-09  4.7565E-09  4.7565E-09  4.7565E-09   0.000       0.000       0.000    
        0.000       0.000       0.000       0.000       0.000       0.000       0.000       0.000       0.000       0.000    
        0.000       0.000    
  41    0.000       0.000       0.000       0.000       0.000       0.000       0.000       0.000       0.000       0.000    
        0.000       0.000       0.000       0.000       0.000       0.000       0.000       0.000      4.7565E-09  4.7565E-09
       4.7565E-09  4.7565E-09  4.7565E-09  4.7565E-09  4.7565E-09  4.7565E-09  4.7565E-09  4.7565E-09  4.7565E-09  4.7565E-09
       4.7565E-09  4.7565E-09  4.7565E-09  4.7565E-09  4.7565E-09  4.7565E-09  4.7565E-09   0.000       0.000       0.000    
        0.000       0.000       0.000       0.000       0.000       0.000       0.000       0.000       0.000       0.000    
        0.000       0.000    
  42    0.000       0.000       0.000       0.000       0.000       0.000       0.000       0.000       0.000       0.000    
        0.000       0.000       0.000       0.000       0.000       0.000       0.000       0.000      4.7565E-09  4.7565E-09
       4.7565E-09  4.7565E-09  4.7565E-09  4.7565E-09  4.7565E-09  4.7565E-09  4.7565E-09  4.7565E-09  4.7565E-09  4.7565E-09
       4.7565E-09  4.7565E-09  4.7565E-09  4.7565E-09  4.7565E-09  4.7565E-09  4.7565E-09   0.000       0.000       0.000    
        0.000       0.000       0.000       0.000       0.000       0.000       0.000       0.000       0.000       0.000    
        0.000       0.000    
  43    0.000       0.000       0.000       0.000       0.000       0.000       0.000       0.000       0.000       0.000    
        0.000       0.000       0.000       0.000       0.000       0.000       0.000       0.000       0.000      4.7565E-09
       4.7565E-09  4.7565E-09  4.7565E-09  4.7565E-09  4.7565E-09  4.7565E-09  4.7565E-09  4.7565E-09  4.7565E-09  4.7565E-09
       4.7565E-09  4.7565E-09  4.7565E-09  4.7565E-09  4.7565E-09  4.7565E-09  4.7565E-09  4.7565E-09   0.000       0.000    
        0.000       0.000       0.000       0.000       0.000       0.000       0.000       0.000       0.000       0.000    
        0.000       0.000    
  44    0.000       0.000       0.000       0.000       0.000       0.000       0.000       0.000       0.000       0.000    
        0.000       0.000       0.000       0.000       0.000       0.000       0.000       0.000       0.000      4.7565E-09
       4.7565E-09  4.7565E-09  4.7565E-09  4.7565E-09  4.7565E-09  4.7565E-09  4.7565E-09  4.7565E-09  4.7565E-09  4.7565E-09
       4.7565E-09  4.7565E-09  4.7565E-09  4.7565E-09  4.7565E-09  4.7565E-09  4.7565E-09  4.7565E-09   0.000       0.000    
        0.000       0.000       0.000       0.000       0.000       0.000       0.000       0.000       0.000       0.000    
        0.000       0.000    
  45    0.000       0.000       0.000       0.000       0.000       0.000       0.000       0.000       0.000       0.000    
        0.000       0.000       0.000       0.000       0.000       0.000       0.000       0.000       0.000       0.000    
       4.7565E-09  4.7565E-09  4.7565E-09  4.7565E-09  4.7565E-09  4.7565E-09  4.7565E-09  4.7565E-09  4.7565E-09  4.7565E-09
       4.7565E-09  4.7565E-09  4.7565E-09  4.7565E-09  4.7565E-09  4.7565E-09  4.7565E-09  4.7565E-09   0.000       0.000    
        0.000       0.000       0.000       0.000       0.000       0.000       0.000       0.000       0.000       0.000    
        0.000       0.000    
  46    0.000       0.000       0.000       0.000       0.000       0.000       0.000       0.000       0.000       0.000    
        0.000       0.000       0.000       0.000       0.000       0.000       0.000       0.000       0.000       0.000    
       4.7565E-09  4.7565E-09  4.7565E-09  4.7565E-09  4.7565E-09  4.7565E-09  4.7565E-09  4.7565E-09  4.7565E-09  4.7565E-09
       4.7565E-09  4.7565E-09  4.7565E-09  4.7565E-09  4.7565E-09  4.7565E-09  4.7565E-09  4.7565E-09   0.000       0.000    
        0.000       0.000       0.000       0.000       0.000       0.000       0.000       0.000       0.000       0.000    
        0.000       0.000    
  47    0.000       0.000       0.000       0.000       0.000       0.000       0.000       0.000       0.000       0.000    
        0.000       0.000       0.000       0.000       0.000       0.000       0.000       0.000       0.000       0.000    
        0.000      4.7565E-09  4.7565E-09  4.7565E-09  4.7565E-09  4.7565E-09  4.7565E-09  4.7565E-09  4.7565E-09  4.7565E-09
       4.7565E-09  4.7565E-09  4.7565E-09  4.7565E-09  4.7565E-09  4.7565E-09  4.7565E-09  4.7565E-09   0.000       0.000    
        0.000       0.000       0.000       0.000       0.000       0.000       0.000       0.000       0.000       0.000    
        0.000       0.000    
  48    0.000       0.000       0.000       0.000       0.000       0.000       0.000       0.000       0.000       0.000    
        0.000       0.000       0.000       0.000       0.000       0.000       0.000       0.000       0.000       0.000    
        0.000      4.7565E-09  4.7565E-09  4.7565E-09  4.7565E-09  4.7565E-09  4.7565E-09  4.7565E-09  4.7565E-09  4.7565E-09
       4.7565E-09  4.7565E-09  4.7565E-09  4.7565E-09  4.7565E-09  4.7565E-09  4.7565E-09  4.7565E-09   0.000       0.000    
        0.000       0.000       0.000       0.000       0.000       0.000       0.000       0.000       0.000       0.000    
        0.000       0.000    
  49    0.000       0.000       0.000       0.000       0.000       0.000       0.000       0.000       0.000       0.000    
        0.000       0.000       0.000       0.000       0.000       0.000       0.000       0.000       0.000       0.000    
        0.000       0.000      4.7565E-09  4.7565E-09  4.7565E-09  4.7565E-09  4.7565E-09  4.7565E-09  4.7565E-09  4.7565E-09
       4.7565E-09  4.7565E-09  4.7565E-09  4.7565E-09  4.7565E-09  4.7565E-09  4.7565E-09  4.7565E-09  4.7565E-09   0.000    
        0.000       0.000       0.000       0.000       0.000       0.000       0.000       0.000       0.000       0.000    
        0.000       0.000    
  50    0.000       0.000       0.000       0.000       0.000       0.000       0.000       0.000       0.000       0.000    
        0.000       0.000       0.000       0.000       0.000       0.000       0.000       0.000       0.000       0.000    
        0.000       0.000       0.000      4.7565E-09  4.7565E-09  4.7565E-09  4.7565E-09  4.7565E-09  4.7565E-09  4.7565E-09
       4.7565E-09  4.7565E-09  4.7565E-09  4.7565E-09  4.7565E-09  4.7565E-09  4.7565E-09  4.7565E-09  4.7565E-09   0.000    
        0.000       0.000       0.000       0.000       0.000       0.000       0.000       0.000       0.000       0.000    
        0.000       0.000    
  51    0.000       0.000       0.000       0.000       0.000       0.000       0.000       0.000       0.000       0.000    
        0.000       0.000       0.000       0.000       0.000       0.000       0.000       0.000       0.000       0.000    
        0.000       0.000       0.000       0.000      4.7565E-09  4.7565E-09  4.7565E-09  4.7565E-09  4.7565E-09  4.7565E-09
       4.7565E-09  4.7565E-09  4.7565E-09  4.7565E-09  4.7565E-09  4.7565E-09  4.7565E-09  4.7565E-09  4.7565E-09   0.000    
        0.000       0.000       0.000       0.000       0.000       0.000       0.000       0.000       0.000       0.000    
        0.000       0.000    
  52    0.000       0.000       0.000       0.000       0.000       0.000       0.000       0.000       0.000       0.000    
        0.000       0.000       0.000       0.000       0.000       0.000       0.000       0.000       0.000       0.000    
        0.000       0.000       0.000       0.000       0.000      4.7565E-09  4.7565E-09   0.000      4.7565E-09  4.7565E-09
       4.7565E-09  4.7565E-09  4.7565E-09  4.7565E-09  4.7565E-09  4.7565E-09  4.7565E-09  4.7565E-09  4.7565E-09   0.000    
        0.000       0.000       0.000       0.000       0.000       0.000       0.000       0.000       0.000       0.000    
        0.000       0.000    
  53    0.000       0.000       0.000       0.000       0.000       0.000       0.000       0.000       0.000       0.000    
        0.000       0.000       0.000       0.000       0.000       0.000       0.000       0.000       0.000       0.000    
        0.000       0.000       0.000       0.000       0.000       0.000       0.000       0.000       0.000      4.7565E-09
       4.7565E-09  4.7565E-09  4.7565E-09  4.7565E-09  4.7565E-09  4.7565E-09  4.7565E-09  4.7565E-09  4.7565E-09  4.7565E-09
        0.000       0.000       0.000       0.000       0.000       0.000       0.000       0.000       0.000       0.000    
        0.000       0.000    
  54    0.000       0.000       0.000       0.000       0.000       0.000       0.000       0.000       0.000       0.000    
        0.000       0.000       0.000       0.000       0.000       0.000       0.000       0.000       0.000       0.000    
        0.000       0.000       0.000       0.000       0.000       0.000       0.000       0.000       0.000      4.7565E-09
       4.7565E-09  4.7565E-09  4.7565E-09  4.7565E-09  4.7565E-09  4.7565E-09  4.7565E-09  4.7565E-09  4.7565E-09  4.7565E-09
        0.000       0.000       0.000       0.000       0.000       0.000       0.000       0.000       0.000       0.000    
        0.000       0.000    
  55    0.000       0.000       0.000       0.000       0.000       0.000       0.000       0.000       0.000       0.000    
        0.000       0.000       0.000       0.000       0.000       0.000       0.000       0.000       0.000       0.000    
        0.000       0.000       0.000       0.000       0.000       0.000       0.000       0.000       0.000      4.7565E-09
       4.7565E-09  4.7565E-09  4.7565E-09  4.7565E-09  4.7565E-09  4.7565E-09  4.7565E-09  4.7565E-09  4.7565E-09  4.7565E-09
       4.7565E-09   0.000       0.000       0.000       0.000       0.000       0.000       0.000       0.000       0.000    
        0.000       0.000    
  56    0.000       0.000       0.000       0.000       0.000       0.000       0.000       0.000       0.000       0.000    
        0.000       0.000       0.000       0.000       0.000       0.000       0.000       0.000       0.000       0.000    
        0.000       0.000       0.000       0.000       0.000       0.000       0.000       0.000       0.000      4.7565E-09
       4.7565E-09  4.7565E-09  4.7565E-09  4.7565E-09  4.7565E-09  4.7565E-09  4.7565E-09  4.7565E-09  4.7565E-09  4.7565E-09
       4.7565E-09  4.7565E-09   0.000       0.000       0.000       0.000       0.000       0.000       0.000       0.000    
        0.000       0.000    
  57    0.000       0.000       0.000       0.000       0.000       0.000       0.000       0.000       0.000       0.000    
        0.000       0.000       0.000       0.000       0.000       0.000       0.000       0.000       0.000       0.000    
        0.000       0.000       0.000       0.000       0.000       0.000       0.000       0.000       0.000       0.000    
       4.7565E-09  4.7565E-09  4.7565E-09  4.7565E-09  4.7565E-09  4.7565E-09  4.7565E-09  4.7565E-09  4.7565E-09  4.7565E-09
       4.7565E-09  4.7565E-09  4.7565E-09   0.000       0.000       0.000       0.000       0.000       0.000       0.000    
        0.000       0.000    
  58    0.000       0.000       0.000       0.000       0.000       0.000       0.000       0.000       0.000       0.000    
        0.000       0.000       0.000       0.000       0.000       0.000       0.000       0.000       0.000       0.000    
        0.000       0.000       0.000       0.000       0.000       0.000       0.000       0.000       0.000       0.000    
       4.7565E-09  4.7565E-09  4.7565E-09  4.7565E-09  4.7565E-09  4.7565E-09  4.7565E-09  4.7565E-09  4.7565E-09  4.7565E-09
       4.7565E-09  4.7565E-09  4.7565E-09  4.7565E-09   0.000       0.000       0.000       0.000       0.000       0.000    
        0.000       0.000    
  59    0.000       0.000       0.000       0.000       0.000       0.000       0.000       0.000       0.000       0.000    
        0.000       0.000       0.000       0.000       0.000       0.000       0.000       0.000       0.000       0.000    
        0.000       0.000       0.000       0.000       0.000       0.000       0.000       0.000       0.000       0.000    
        0.000      4.7565E-09  4.7565E-09  4.7565E-09  4.7565E-09  4.7565E-09  4.7565E-09  4.7565E-09  4.7565E-09  4.7565E-09
       4.7565E-09  4.7565E-09  4.7565E-09  4.7565E-09  4.7565E-09   0.000       0.000       0.000       0.000       0.000    
        0.000       0.000    
  60    0.000       0.000       0.000       0.000       0.000       0.000       0.000       0.000       0.000       0.000    
        0.000       0.000       0.000       0.000       0.000       0.000       0.000       0.000       0.000       0.000    
        0.000       0.000       0.000       0.000       0.000       0.000       0.000       0.000       0.000       0.000    
        0.000      4.7565E-09  4.7565E-09  4.7565E-09  4.7565E-09  4.7565E-09  4.7565E-09  4.7565E-09  4.7565E-09  4.7565E-09
       4.7565E-09  4.7565E-09  4.7565E-09  4.7565E-09  4.7565E-09   0.000       0.000       0.000       0.000       0.000    
        0.000       0.000    
  61    0.000       0.000       0.000       0.000       0.000       0.000       0.000       0.000       0.000       0.000    
        0.000       0.000       0.000       0.000       0.000       0.000       0.000       0.000       0.000       0.000    
        0.000       0.000       0.000       0.000       0.000       0.000       0.000       0.000       0.000       0.000    
        0.000       0.000      4.7565E-09  4.7565E-09  4.7565E-09  4.7565E-09  4.7565E-09  4.7565E-09  4.7565E-09  4.7565E-09
       4.7565E-09  4.7565E-09  4.7565E-09  4.7565E-09  4.7565E-09  4.7565E-09   0.000       0.000       0.000       0.000    
        0.000       0.000    
  62    0.000       0.000       0.000       0.000       0.000       0.000       0.000       0.000       0.000       0.000    
        0.000       0.000       0.000       0.000       0.000       0.000       0.000       0.000       0.000       0.000    
        0.000       0.000       0.000       0.000       0.000       0.000       0.000       0.000       0.000       0.000    
        0.000       0.000      4.7565E-09  4.7565E-09  4.7565E-09  4.7565E-09  4.7565E-09  4.7565E-09  4.7565E-09  4.7565E-09
       4.7565E-09  4.7565E-09  4.7565E-09  4.7565E-09  4.7565E-09  4.7565E-09   0.000       0.000       0.000       0.000    
        0.000       0.000    
  63    0.000       0.000       0.000       0.000       0.000       0.000       0.000       0.000       0.000       0.000    
        0.000       0.000       0.000       0.000       0.000       0.000       0.000       0.000       0.000       0.000    
        0.000       0.000       0.000       0.000       0.000       0.000       0.000       0.000       0.000       0.000    
        0.000       0.000       0.000      4.7565E-09  4.7565E-09  4.7565E-09  4.7565E-09  4.7565E-09  4.7565E-09  4.7565E-09
       4.7565E-09  4.7565E-09  4.7565E-09  4.7565E-09  4.7565E-09  4.7565E-09   0.000       0.000       0.000       0.000    
        0.000       0.000    
  64    0.000       0.000       0.000       0.000       0.000       0.000       0.000       0.000       0.000       0.000    
        0.000       0.000       0.000       0.000       0.000       0.000       0.000       0.000       0.000       0.000    
        0.000       0.000       0.000       0.000       0.000       0.000       0.000       0.000       0.000       0.000    
        0.000       0.000       0.000       0.000      4.7565E-09  4.7565E-09  4.7565E-09  4.7565E-09  4.7565E-09  4.7565E-09
       4.7565E-09  4.7565E-09  4.7565E-09  4.7565E-09  4.7565E-09  4.7565E-09  4.7565E-09   0.000       0.000       0.000    
        0.000       0.000    
  65    0.000       0.000       0.000       0.000       0.000       0.000       0.000       0.000       0.000       0.000    
        0.000       0.000       0.000       0.000       0.000       0.000       0.000       0.000       0.000       0.000    
        0.000       0.000       0.000       0.000       0.000       0.000       0.000       0.000       0.000       0.000    
        0.000       0.000       0.000       0.000       0.000      4.7565E-09  4.7565E-09  4.7565E-09  4.7565E-09  4.7565E-09
       4.7565E-09  4.7565E-09  4.7565E-09  4.7565E-09  4.7565E-09  4.7565E-09   0.000       0.000       0.000       0.000    
        0.000       0.000    
  66    0.000       0.000       0.000       0.000       0.000       0.000       0.000       0.000       0.000       0.000    
        0.000       0.000       0.000       0.000       0.000       0.000       0.000       0.000       0.000       0.000    
        0.000       0.000       0.000       0.000       0.000       0.000       0.000       0.000       0.000       0.000    
        0.000       0.000       0.000       0.000       0.000       0.000       0.000      4.7565E-09  4.7565E-09  4.7565E-09
       4.7565E-09  4.7565E-09  4.7565E-09  4.7565E-09  4.7565E-09  4.7565E-09   0.000       0.000       0.000       0.000    
        0.000       0.000    
  67    0.000       0.000       0.000       0.000       0.000       0.000       0.000       0.000       0.000       0.000    
        0.000       0.000       0.000       0.000       0.000       0.000       0.000       0.000       0.000       0.000    
        0.000       0.000       0.000       0.000       0.000       0.000       0.000       0.000       0.000       0.000    
        0.000       0.000       0.000       0.000       0.000       0.000       0.000       0.000       0.000      4.7565E-09
       4.7565E-09  4.7565E-09  4.7565E-09  4.7565E-09  4.7565E-09   0.000       0.000       0.000       0.000       0.000    
        0.000       0.000    
  68    0.000       0.000       0.000       0.000       0.000       0.000       0.000       0.000       0.000       0.000    
        0.000       0.000       0.000       0.000       0.000       0.000       0.000       0.000       0.000       0.000    
        0.000       0.000       0.000       0.000       0.000       0.000       0.000       0.000       0.000       0.000    
        0.000       0.000       0.000       0.000       0.000       0.000       0.000       0.000       0.000       0.000    
        0.000      4.7565E-09  4.7565E-09   0.000       0.000       0.000       0.000       0.000       0.000       0.000    
        0.000       0.000    
 
 SOLVING FOR HEAD 


     4 CALLS TO PCG ROUTINE FOR TIME STEP   1 IN STRESS PERIOD    2
    21 TOTAL ITERATIONS

 MAXIMUM HEAD CHANGE FOR EACH ITERATION (1 INDICATES THE FIRST INNER ITERATION):

    HEAD CHANGE    HEAD CHANGE    HEAD CHANGE    HEAD CHANGE    HEAD CHANGE 
   LAYER,ROW,COL  LAYER,ROW,COL  LAYER,ROW,COL  LAYER,ROW,COL  LAYER,ROW,COL
 ---------------------------------------------------------------------------
  1  -6.198      0  -1.398      0 -0.2986      0 -0.1430      0 -0.6969E-01
   (  1, 18, 10)  (  2, 21,  7)  (  2, 12, 15)  (  1, 35,  8)  (  2, 34,  9)
  0 -0.1874E-01  0 -0.4076E-02  0 -0.1374E-02  0 -0.4309E-03  1  -1.339    
   (  1, 35,  8)  (  2,  1, 22)  (  2,  1, 26)  (  2,  1, 29)  (  1, 15, 11)
  0 -0.3240      0 -0.8563E-01  0 -0.2611E-01  0 -0.7447E-02  0 -0.2377E-02
   (  2, 21, 12)  (  2, 18, 14)  (  2, 16, 15)  (  2, 19, 11)  (  2, 20,  8)
  0 -0.9144E-03  1 -0.2724E-01  0 -0.6687E-02  0  0.1808E-02  0  0.4701E-03
   (  2,  1, 25)  (  2, 18, 10)  (  2, 20,  8)  (  2, 22, 11)  (  2, 24,  9)
  1 -0.6587E-03
   (  2, 18, 10)

 MAXIMUM RESIDUAL FOR EACH ITERATION (1 INDICATES THE FIRST INNER ITERATION):

    RESIDUAL       RESIDUAL       RESIDUAL       RESIDUAL       RESIDUAL    
   LAYER,ROW,COL  LAYER,ROW,COL  LAYER,ROW,COL  LAYER,ROW,COL  LAYER,ROW,COL
 ---------------------------------------------------------------------------
  1  0.4829E-02  0  0.1414E-02  0  0.3960E-03  0  0.1885E-03  0 -0.6998E-04
   (  1, 22, 10)  (  2, 17, 10)  (  2, 17, 10)  (  1, 34,  9)  (  2, 34,  9)
  0 -0.1855E-04  0 -0.4012E-05  0 -0.1546E-05  0 -0.5691E-06  1  0.1767E-02
   (  2, 22, 13)  (  2, 23, 11)  (  1, 19, 10)  (  1, 21, 12)  (  1, 15, 11)
  0  0.4901E-03  0  0.1896E-03  0 -0.5114E-04  0 -0.1969E-04  0  0.5794E-05
   (  2, 14, 11)  (  2, 15, 10)  (  2, 22, 13)  (  2, 18, 14)  (  2, 20, 11)
  0 -0.1946E-05  1 -0.5420E-04  0 -0.1500E-04  0  0.3363E-05  0  0.1615E-05
   (  1, 21, 12)  (  1,  5, 12)  (  2, 22, 11)  (  2, 17, 10)  (  2, 20, 13)
  1  0.9389E-06
   (  1, 18, 10)



 OUTPUT CONTROL FOR STRESS PERIOD    2   TIME STEP    1
    SAVE HEAD FOR ALL LAYERS
    SAVE DRAWDOWN FOR ALL LAYERS
    SAVE BUDGET
    PRINT BUDGET
 UBDSV1 SAVING "         STORAGE" ON UNIT   9 AT TIME STEP  1, STRESS PERIOD   2
 UBDSV2 SAVING "   CONSTANT HEAD" ON UNIT   9 AT TIME STEP  1, STRESS PERIOD   2
 UBDSV1 SAVING "FLOW RIGHT FACE " ON UNIT   9 AT TIME STEP  1, STRESS PERIOD   2
 UBDSV1 SAVING "FLOW FRONT FACE " ON UNIT   9 AT TIME STEP  1, STRESS PERIOD   2
 UBDSV1 SAVING "FLOW LOWER FACE " ON UNIT   9 AT TIME STEP  1, STRESS PERIOD   2
 UBDSV4 SAVING "           WELLS" ON UNIT   9 AT TIME STEP  1, STRESS PERIOD   2
 UBDSV4 SAVING "   RIVER LEAKAGE" ON UNIT   9 AT TIME STEP  1, STRESS PERIOD   2
 UBDSV3 SAVING "              ET" ON UNIT   9 AT TIME STEP  1, STRESS PERIOD   2
 UBDSV4 SAVING " HEAD DEP BOUNDS" ON UNIT   9 AT TIME STEP  1, STRESS PERIOD   2
 UBDSV3 SAVING "        RECHARGE" ON UNIT   9 AT TIME STEP  1, STRESS PERIOD   2
 SOLVING FOR ZETA FOR LAYER     1 ZONE     2


     2 CALLS TO PCG ROUTINE FOR TIME STEP   1 IN STRESS PERIOD    2
     4 TOTAL ITERATIONS

 MAXIMUM HEAD CHANGE FOR EACH ITERATION (1 INDICATES THE FIRST INNER ITERATION):

    HEAD CHANGE    HEAD CHANGE    HEAD CHANGE    HEAD CHANGE    HEAD CHANGE 
   LAYER,ROW,COL  LAYER,ROW,COL  LAYER,ROW,COL  LAYER,ROW,COL  LAYER,ROW,COL
 ---------------------------------------------------------------------------
  1  -1.407      0  0.3032E-02  0  0.1112E-04  1  0.6715E-07
   (  1, 16,  4)  (  1, 16,  4)  (  1, 18,  3)  (  1, 19,  4)

 MAXIMUM RESIDUAL FOR EACH ITERATION (1 INDICATES THE FIRST INNER ITERATION):

    RESIDUAL       RESIDUAL       RESIDUAL       RESIDUAL       RESIDUAL    
   LAYER,ROW,COL  LAYER,ROW,COL  LAYER,ROW,COL  LAYER,ROW,COL  LAYER,ROW,COL
 ---------------------------------------------------------------------------
  1 -0.7865E-06  0  0.3164E-08  0  0.1442E-10  1  0.1103E-12
   (  1, 16,  4)  (  1,  9,  2)  (  1, 29,  4)  (  1, 30,  3)


 SOLVING FOR ZETA FOR LAYER     2 ZONE     2


     2 CALLS TO PCG ROUTINE FOR TIME STEP   1 IN STRESS PERIOD    2
     4 TOTAL ITERATIONS

 MAXIMUM HEAD CHANGE FOR EACH ITERATION (1 INDICATES THE FIRST INNER ITERATION):

    HEAD CHANGE    HEAD CHANGE    HEAD CHANGE    HEAD CHANGE    HEAD CHANGE 
   LAYER,ROW,COL  LAYER,ROW,COL  LAYER,ROW,COL  LAYER,ROW,COL  LAYER,ROW,COL
 ---------------------------------------------------------------------------
  1   5.228      0  0.1258E-02  0  0.7940E-05  1  0.1857E-06
   (  1, 17,  5)  (  1, 34,  4)  (  1, 33,  5)  (  1, 19,  5)

 MAXIMUM RESIDUAL FOR EACH ITERATION (1 INDICATES THE FIRST INNER ITERATION):

    RESIDUAL       RESIDUAL       RESIDUAL       RESIDUAL       RESIDUAL    
   LAYER,ROW,COL  LAYER,ROW,COL  LAYER,ROW,COL  LAYER,ROW,COL  LAYER,ROW,COL
 ---------------------------------------------------------------------------
  1 -0.3964E-06  0 -0.2284E-08  0  0.5761E-14  1  0.8169E-14
   (  1, 34,  4)  (  1, 33,  5)  (  1, 16,  5)  (  1, 34,  4)


 UBUDSV SAVING "      ZETASRF  1" ON UNIT170 AT TIME STEP  1, STRESS PERIOD    2


                      VOLUMETRIC SWI ZONE BUDGET FOR ENTIRE MODEL
                     AT END OF TIME STEP    1 IN STRESS PERIOD   2
                                      ZONE     1
  -----------------------------------------------------------------------------------

        CUMULATIVE VOLUMES      L**3       RATES FOR THIS TIME STEP      L**3/T
        ------------------                 ------------------------

              IN:                                      IN:
              ---                                      ---
             BOUNDARIES =   509545952.0000            BOUNDARIES =           0.2093
          CONSTANT HEAD =           0.0000         CONSTANT HEAD =           0.0000
            ZONE CHANGE =    86183400.0000           ZONE CHANGE =           0.2221
       ZONE CHG TIP/TOE =     3741066.7500      ZONE CHG TIP/TOE =       2.3510E-04
            ZONE MIXING =           0.0000           ZONE MIXING =           0.0000

               TOTAL IN =   599470400.0000              TOTAL IN =           0.4316

             OUT:                                     OUT:
             ----                                     ----
             BOUNDARIES =   485865824.0000            BOUNDARIES =           0.4648
          CONSTANT HEAD =           0.0000         CONSTANT HEAD =           0.0000
            ZONE CHANGE =    22852568.0000           ZONE CHANGE =       7.8503E-03
       ZONE CHG TIP/TOE =     3397897.0000      ZONE CHG TIP/TOE =       4.7019E-04
            ZONE MIXING =           0.0000           ZONE MIXING =           0.0000

              TOTAL OUT =   512116288.0000             TOTAL OUT =           0.4731

               IN - OUT =    87354112.0000              IN - OUT =      -4.1501E-02

    PERCENT DISCREPANCY =          15.72     PERCENT DISCREPANCY =          -9.17



                      VOLUMETRIC SWI ZONE BUDGET FOR ENTIRE MODEL
                     AT END OF TIME STEP    1 IN STRESS PERIOD   2
                                      ZONE     2
  -----------------------------------------------------------------------------------

        CUMULATIVE VOLUMES      L**3       RATES FOR THIS TIME STEP      L**3/T
        ------------------                 ------------------------

              IN:                                      IN:
              ---                                      ---
             BOUNDARIES =      105013.9141            BOUNDARIES =       6.6599E-03
          CONSTANT HEAD =           0.0000         CONSTANT HEAD =           0.0000
            ZONE CHANGE =    19658694.0000           ZONE CHANGE =       7.5274E-03
       ZONE CHG TIP/TOE =     3397897.0000      ZONE CHG TIP/TOE =       4.7019E-04
            ZONE MIXING =           0.0000           ZONE MIXING =           0.0000

               TOTAL IN =    23161606.0000              TOTAL IN =       1.4658E-02

             OUT:                                     OUT:
             ----                                     ----
             BOUNDARIES =    27722404.0000            BOUNDARIES =       4.9152E-11
          CONSTANT HEAD =           0.0000         CONSTANT HEAD =           0.0000
            ZONE CHANGE =     2295881.5000           ZONE CHANGE =       1.4422E-02
       ZONE CHG TIP/TOE =     1424787.8750      ZONE CHG TIP/TOE =           0.0000
            ZONE MIXING =           0.0000           ZONE MIXING =           0.0000

              TOTAL OUT =    31443074.0000             TOTAL OUT =       1.4422E-02

               IN - OUT =    -8281468.0000              IN - OUT =       2.3523E-04

    PERCENT DISCREPANCY =         -30.33     PERCENT DISCREPANCY =           1.62


 HEAD WILL BE SAVED ON UNIT   37 AT END OF TIME STEP    1, STRESS PERIOD    2

 DRAWDOWN WILL BE SAVED ON UNIT   38 AT END OF TIME STEP    1, STRESS PERIOD    2
1
  VOLUMETRIC BUDGET FOR ENTIRE MODEL AT END OF TIME STEP    1, STRESS PERIOD   2
  ------------------------------------------------------------------------------

     CUMULATIVE VOLUMES      L**3       RATES FOR THIS TIME STEP      L**3/T
     ------------------                 ------------------------

           IN:                                      IN:
           ---                                      ---
             STORAGE =     3928355.5000               STORAGE =           0.2491
       CONSTANT HEAD =           0.0000         CONSTANT HEAD =           0.0000
               WELLS =           0.0000                 WELLS =           0.0000
       RIVER LEAKAGE =   110820352.0000         RIVER LEAKAGE =       3.5731E-02
                  ET =           0.0000                    ET =           0.0000
     HEAD DEP BOUNDS =      105013.9141       HEAD DEP BOUNDS =       6.6599E-03
            RECHARGE =   423826272.0000              RECHARGE =           0.2002
          SWIADDTOCH =           0.0000            SWIADDTOCH =           0.0000

            TOTAL IN =   538680000.0000              TOTAL IN =           0.4917

          OUT:                                     OUT:
          ----                                     ----
             STORAGE =        3980.7139               STORAGE =       2.5246E-04
       CONSTANT HEAD =           0.0000         CONSTANT HEAD =           0.0000
               WELLS =     6212592.0000                 WELLS =           0.3940
       RIVER LEAKAGE =    21573910.0000         RIVER LEAKAGE =       3.8205E-03
                  ET =   165617008.0000                    ET =       2.5035E-02
     HEAD DEP BOUNDS =   345285152.0000       HEAD DEP BOUNDS =       6.8569E-02
            RECHARGE =           0.0000              RECHARGE =           0.0000
          SWIADDTOCH =           0.0000            SWIADDTOCH =           0.0000

           TOTAL OUT =   538692608.0000             TOTAL OUT =           0.4917

            IN - OUT =      -12608.0000              IN - OUT =       3.8743E-07

 PERCENT DISCREPANCY =          -0.00     PERCENT DISCREPANCY =           0.00






         TIME SUMMARY AT END OF TIME STEP    1 IN STRESS PERIOD    2
                    SECONDS     MINUTES      HOURS       DAYS        YEARS
                    -----------------------------------------------------------
   TIME STEP LENGTH 1.57680E+07 2.62800E+05  4380.0      182.50     0.49966    
 STRESS PERIOD TIME 1.57680E+07 2.62800E+05  4380.0      182.50     0.49966    
         TOTAL TIME 3.16937E+09 5.28228E+07 8.80380E+05  36682.      100.43    
1
 
 SOLVING FOR HEAD 
     4 CALLS TO PCG ROUTINE FOR TIME STEP   2 IN STRESS PERIOD    2
    18 TOTAL ITERATIONS

 MAXIMUM HEAD CHANGE FOR EACH ITERATION (1 INDICATES THE FIRST INNER ITERATION):

    HEAD CHANGE    HEAD CHANGE    HEAD CHANGE    HEAD CHANGE    HEAD CHANGE 
   LAYER,ROW,COL  LAYER,ROW,COL  LAYER,ROW,COL  LAYER,ROW,COL  LAYER,ROW,COL
 ---------------------------------------------------------------------------
  1  -3.183      0 -0.5098      0 -0.1116      0 -0.4232E-01  0 -0.1260E-01
   (  1, 18, 10)  (  2, 14, 14)  (  2, 11, 18)  (  2,  7, 18)  (  2, 12, 15)
  0 -0.4301E-02  0 -0.1715E-02  0 -0.4387E-03  1  0.2107      0  0.4687E-01
   (  2,  1, 25)  (  2,  1, 28)  (  2,  1, 29)  (  1, 21, 15)  (  2, 19, 17)
  0  0.1626E-01  0  0.4835E-02  0 -0.1554E-02  0 -0.4109E-03  1 -0.1612E-01
   (  2, 20, 14)  (  2, 17, 17)  (  2, 15, 13)  (  2, 12, 15)  (  1, 24, 18)
  0 -0.2541E-02  0 -0.8371E-03  1 -0.1912E-03
   (  1, 17, 18)  (  2, 16, 17)  (  2, 23, 18)

 MAXIMUM RESIDUAL FOR EACH ITERATION (1 INDICATES THE FIRST INNER ITERATION):

    RESIDUAL       RESIDUAL       RESIDUAL       RESIDUAL       RESIDUAL    
   LAYER,ROW,COL  LAYER,ROW,COL  LAYER,ROW,COL  LAYER,ROW,COL  LAYER,ROW,COL
 ---------------------------------------------------------------------------
  1 -0.1138E-02  0  0.4026E-03  0  0.1334E-03  0  0.3931E-04  0  0.1018E-04
   (  2, 21, 12)  (  1, 28,  9)  (  1, 28,  9)  (  1,  5, 16)  (  1, 27,  3)
  0  0.3736E-05  0 -0.1407E-05  0 -0.4277E-06  1 -0.3416E-03  0 -0.1001E-03
   (  2,  4, 15)  (  2, 34,  6)  (  2, 34,  5)  (  1, 17, 18)  (  2, 21, 14)
  0 -0.3898E-04  0  0.8420E-05  0  0.2791E-05  0 -0.8692E-06  1  0.3668E-04
   (  2, 17, 17)  (  2, 25, 17)  (  2, 20, 16)  (  2, 25, 16)  (  1, 17, 18)
  0  0.7661E-05  0  0.2766E-05  1  0.1106E-05
   (  2, 16, 18)  (  2, 17, 17)  (  2, 16, 18)



 OUTPUT CONTROL FOR STRESS PERIOD    2   TIME STEP    2
    SAVE HEAD FOR ALL LAYERS
    SAVE DRAWDOWN FOR ALL LAYERS
    SAVE BUDGET
    PRINT BUDGET
 UBDSV1 SAVING "         STORAGE" ON UNIT   9 AT TIME STEP  2, STRESS PERIOD   2
 UBDSV2 SAVING "   CONSTANT HEAD" ON UNIT   9 AT TIME STEP  2, STRESS PERIOD   2
 UBDSV1 SAVING "FLOW RIGHT FACE " ON UNIT   9 AT TIME STEP  2, STRESS PERIOD   2
 UBDSV1 SAVING "FLOW FRONT FACE " ON UNIT   9 AT TIME STEP  2, STRESS PERIOD   2
 UBDSV1 SAVING "FLOW LOWER FACE " ON UNIT   9 AT TIME STEP  2, STRESS PERIOD   2
 UBDSV4 SAVING "           WELLS" ON UNIT   9 AT TIME STEP  2, STRESS PERIOD   2
 UBDSV4 SAVING "   RIVER LEAKAGE" ON UNIT   9 AT TIME STEP  2, STRESS PERIOD   2
 UBDSV3 SAVING "              ET" ON UNIT   9 AT TIME STEP  2, STRESS PERIOD   2
 UBDSV4 SAVING " HEAD DEP BOUNDS" ON UNIT   9 AT TIME STEP  2, STRESS PERIOD   2
 UBDSV3 SAVING "        RECHARGE" ON UNIT   9 AT TIME STEP  2, STRESS PERIOD   2
 SOLVING FOR ZETA FOR LAYER     1 ZONE     2
     2 CALLS TO PCG ROUTINE FOR TIME STEP   2 IN STRESS PERIOD    2
     4 TOTAL ITERATIONS

 MAXIMUM HEAD CHANGE FOR EACH ITERATION (1 INDICATES THE FIRST INNER ITERATION):

    HEAD CHANGE    HEAD CHANGE    HEAD CHANGE    HEAD CHANGE    HEAD CHANGE 
   LAYER,ROW,COL  LAYER,ROW,COL  LAYER,ROW,COL  LAYER,ROW,COL  LAYER,ROW,COL
 ---------------------------------------------------------------------------
  1  -1.239      0 -0.3525E-02  0 -0.1645E-04  1 -0.5658E-07
   (  1, 11,  2)  (  1,  8,  3)  (  1,  9,  2)  (  1, 29,  4)

 MAXIMUM RESIDUAL FOR EACH ITERATION (1 INDICATES THE FIRST INNER ITERATION):

    RESIDUAL       RESIDUAL       RESIDUAL       RESIDUAL       RESIDUAL    
   LAYER,ROW,COL  LAYER,ROW,COL  LAYER,ROW,COL  LAYER,ROW,COL  LAYER,ROW,COL
 ---------------------------------------------------------------------------
  1  0.1039E-05  0  0.5055E-08  0  0.1295E-10  1  0.1013E-12
   (  1,  8,  3)  (  1,  9,  2)  (  1, 29,  4)  (  1, 30,  3)


 SOLVING FOR ZETA FOR LAYER     2 ZONE     2
     2 CALLS TO PCG ROUTINE FOR TIME STEP   2 IN STRESS PERIOD    2
     4 TOTAL ITERATIONS

 MAXIMUM HEAD CHANGE FOR EACH ITERATION (1 INDICATES THE FIRST INNER ITERATION):

    HEAD CHANGE    HEAD CHANGE    HEAD CHANGE    HEAD CHANGE    HEAD CHANGE 
   LAYER,ROW,COL  LAYER,ROW,COL  LAYER,ROW,COL  LAYER,ROW,COL  LAYER,ROW,COL
 ---------------------------------------------------------------------------
  1   7.620      0  0.2294E-02  0  0.1869E-04  1 -0.1808E-06
   (  1, 18,  5)  (  1, 34,  4)  (  1, 33,  5)  (  1, 22,  5)

 MAXIMUM RESIDUAL FOR EACH ITERATION (1 INDICATES THE FIRST INNER ITERATION):

    RESIDUAL       RESIDUAL       RESIDUAL       RESIDUAL       RESIDUAL    
   LAYER,ROW,COL  LAYER,ROW,COL  LAYER,ROW,COL  LAYER,ROW,COL  LAYER,ROW,COL
 ---------------------------------------------------------------------------
  1 -0.7217E-06  0 -0.5390E-08  0 -0.9775E-14  1  0.8181E-14
   (  1, 34,  4)  (  1, 33,  5)  (  1, 18,  5)  (  1, 34,  4)


 UBUDSV SAVING "      ZETASRF  1" ON UNIT170 AT TIME STEP  2, STRESS PERIOD    2


                      VOLUMETRIC SWI ZONE BUDGET FOR ENTIRE MODEL
                     AT END OF TIME STEP    2 IN STRESS PERIOD   2
                                      ZONE     1
  -----------------------------------------------------------------------------------

        CUMULATIVE VOLUMES      L**3       RATES FOR THIS TIME STEP      L**3/T
        ------------------                 ------------------------

              IN:                                      IN:
              ---                                      ---
             BOUNDARIES =   512957152.0000            BOUNDARIES =           0.2163
          CONSTANT HEAD =           0.0000         CONSTANT HEAD =           0.0000
            ZONE CHANGE =    89201248.0000           ZONE CHANGE =           0.1914
       ZONE CHG TIP/TOE =     3757066.7500      ZONE CHG TIP/TOE =       1.0147E-03
            ZONE MIXING =           0.0000           ZONE MIXING =           0.0000

               TOTAL IN =   605915456.0000              TOTAL IN =           0.4087

             OUT:                                     OUT:
             ----                                     ----
             BOUNDARIES =   492710016.0000            BOUNDARIES =           0.4341
          CONSTANT HEAD =           0.0000         CONSTANT HEAD =           0.0000
            ZONE CHANGE =    22955056.0000           ZONE CHANGE =       6.4998E-03
       ZONE CHG TIP/TOE =     3424121.0000      ZONE CHG TIP/TOE =       1.6631E-03
            ZONE MIXING =           0.0000           ZONE MIXING =           0.0000

              TOTAL OUT =   519089184.0000             TOTAL OUT =           0.4422

               IN - OUT =    86826272.0000              IN - OUT =      -3.3476E-02

    PERCENT DISCREPANCY =          15.44     PERCENT DISCREPANCY =          -7.87



                      VOLUMETRIC SWI ZONE BUDGET FOR ENTIRE MODEL
                     AT END OF TIME STEP    2 IN STRESS PERIOD   2
                                      ZONE     2
  -----------------------------------------------------------------------------------

        CUMULATIVE VOLUMES      L**3       RATES FOR THIS TIME STEP      L**3/T
        ------------------                 ------------------------

              IN:                                      IN:
              ---                                      ---
             BOUNDARIES =      355945.6250            BOUNDARIES =       1.5914E-02
          CONSTANT HEAD =           0.0000         CONSTANT HEAD =           0.0000
            ZONE CHANGE =    19761664.0000           ZONE CHANGE =       6.5303E-03
       ZONE CHG TIP/TOE =     3424121.0000      ZONE CHG TIP/TOE =       1.6631E-03
            ZONE MIXING =           0.0000           ZONE MIXING =           0.0000

               TOTAL IN =    23541730.0000              TOTAL IN =       2.4107E-02

             OUT:                                     OUT:
             ----                                     ----
             BOUNDARIES =    27722404.0000            BOUNDARIES =       7.6932E-11
          CONSTANT HEAD =           0.0000         CONSTANT HEAD =           0.0000
            ZONE CHANGE =     2660008.2500           ZONE CHANGE =       2.3093E-02
       ZONE CHG TIP/TOE =     1440787.8750      ZONE CHG TIP/TOE =       1.0147E-03
            ZONE MIXING =           0.0000           ZONE MIXING =           0.0000

              TOTAL OUT =    31823200.0000             TOTAL OUT =       2.4107E-02

               IN - OUT =    -8281470.0000              IN - OUT =      -4.8429E-08

    PERCENT DISCREPANCY =         -29.92     PERCENT DISCREPANCY =          -0.00


 HEAD WILL BE SAVED ON UNIT   37 AT END OF TIME STEP    2, STRESS PERIOD    2

 DRAWDOWN WILL BE SAVED ON UNIT   38 AT END OF TIME STEP    2, STRESS PERIOD    2
1
  VOLUMETRIC BUDGET FOR ENTIRE MODEL AT END OF TIME STEP    2, STRESS PERIOD   2
  ------------------------------------------------------------------------------

     CUMULATIVE VOLUMES      L**3       RATES FOR THIS TIME STEP      L**3/T
     ------------------                 ------------------------

           IN:                                      IN:
           ---                                      ---
             STORAGE =     7111104.0000               STORAGE =           0.2018
       CONSTANT HEAD =           0.0000         CONSTANT HEAD =           0.0000
               WELLS =           0.0000                 WELLS =           0.0000
       RIVER LEAKAGE =   111412520.0000         RIVER LEAKAGE =       3.7555E-02
                  ET =           0.0000                    ET =           0.0000
     HEAD DEP BOUNDS =      415249.8438       HEAD DEP BOUNDS =       1.9675E-02
            RECHARGE =   426982272.0000              RECHARGE =           0.2002
          SWIADDTOCH =           0.0000            SWIADDTOCH =           0.0000

            TOTAL IN =   545921152.0000              TOTAL IN =           0.4592

          OUT:                                     OUT:
          ----                                     ----
             STORAGE =        4834.5522               STORAGE =       5.4150E-05
       CONSTANT HEAD =           0.0000         CONSTANT HEAD =           0.0000
               WELLS =    12425184.0000                 WELLS =           0.3940
       RIVER LEAKAGE =    21601172.0000         RIVER LEAKAGE =       1.7289E-03
                  ET =   165854576.0000                    ET =       1.5066E-02
     HEAD DEP BOUNDS =   346048192.0000       HEAD DEP BOUNDS =       4.8391E-02
            RECHARGE =           0.0000              RECHARGE =           0.0000
          SWIADDTOCH =           0.0000            SWIADDTOCH =           0.0000

           TOTAL OUT =   545933952.0000             TOTAL OUT =           0.4592

            IN - OUT =      -12800.0000              IN - OUT =      -9.6560E-06

 PERCENT DISCREPANCY =          -0.00     PERCENT DISCREPANCY =          -0.00






         TIME SUMMARY AT END OF TIME STEP    2 IN STRESS PERIOD    2
                    SECONDS     MINUTES      HOURS       DAYS        YEARS
                    -----------------------------------------------------------
   TIME STEP LENGTH 1.57680E+07 2.62800E+05  4380.0      182.50     0.49966    
 STRESS PERIOD TIME 3.15360E+07 5.25600E+05  8760.0      365.00     0.99932    
         TOTAL TIME 3.18514E+09 5.30856E+07 8.84760E+05  36865.      100.93    
1
 
 SOLVING FOR HEAD 
     4 CALLS TO PCG ROUTINE FOR TIME STEP   3 IN STRESS PERIOD    2
    16 TOTAL ITERATIONS

 MAXIMUM HEAD CHANGE FOR EACH ITERATION (1 INDICATES THE FIRST INNER ITERATION):

    HEAD CHANGE    HEAD CHANGE    HEAD CHANGE    HEAD CHANGE    HEAD CHANGE 
   LAYER,ROW,COL  LAYER,ROW,COL  LAYER,ROW,COL  LAYER,ROW,COL  LAYER,ROW,COL
 ---------------------------------------------------------------------------
  1  -1.830      0 -0.2455      0 -0.4928E-01  0 -0.2104E-01  0 -0.6560E-02
   (  1, 18, 11)  (  1, 16, 17)  (  2,  3, 19)  (  2, 23,  2)  (  2,  1, 24)
  0 -0.1937E-02  0  0.8125E-03  1 -0.2057      0 -0.3853E-01  0 -0.1714E-01
   (  2,  1, 26)  (  2,  5, 11)  (  1, 17, 18)  (  2, 19, 16)  (  2,  5, 11)
  0 -0.4078E-02  0 -0.1140E-02  0 -0.4664E-03  1 -0.4632E-02  0 -0.9846E-03
   (  2, 17, 17)  (  1, 15, 20)  (  2, 21, 14)  (  2, 18, 10)  (  2, 15, 12)
  1 -0.2165E-03
   (  2,  6, 11)

 MAXIMUM RESIDUAL FOR EACH ITERATION (1 INDICATES THE FIRST INNER ITERATION):

    RESIDUAL       RESIDUAL       RESIDUAL       RESIDUAL       RESIDUAL    
   LAYER,ROW,COL  LAYER,ROW,COL  LAYER,ROW,COL  LAYER,ROW,COL  LAYER,ROW,COL
 ---------------------------------------------------------------------------
  1  0.9996E-03  0  0.3085E-03  0  0.8826E-04  0  0.2077E-04  0  0.7971E-05
   (  1, 17, 18)  (  1, 17, 18)  (  1,  5, 17)  (  2, 18, 17)  (  2,  5, 11)
  0  0.2370E-05  0  0.9471E-06  1 -0.3610E-03  0  0.9687E-04  0  0.3394E-04
   (  2,  5, 16)  (  2,  5, 11)  (  1,  4, 15)  (  2, 17, 17)  (  2, 16, 18)
  0 -0.1135E-04  0  0.3308E-05  0 -0.1233E-05  1  0.3731E-05  0 -0.1345E-05
   (  2,  4, 14)  (  2,  5, 14)  (  1,  5, 14)  (  1, 17, 11)  (  2, 20,  9)
  1 -0.6296E-06
   (  2, 19, 12)



 OUTPUT CONTROL FOR STRESS PERIOD    2   TIME STEP    3
    SAVE HEAD FOR ALL LAYERS
    SAVE DRAWDOWN FOR ALL LAYERS
    SAVE BUDGET
    PRINT BUDGET
 UBDSV1 SAVING "         STORAGE" ON UNIT   9 AT TIME STEP  3, STRESS PERIOD   2
 UBDSV2 SAVING "   CONSTANT HEAD" ON UNIT   9 AT TIME STEP  3, STRESS PERIOD   2
 UBDSV1 SAVING "FLOW RIGHT FACE " ON UNIT   9 AT TIME STEP  3, STRESS PERIOD   2
 UBDSV1 SAVING "FLOW FRONT FACE " ON UNIT   9 AT TIME STEP  3, STRESS PERIOD   2
 UBDSV1 SAVING "FLOW LOWER FACE " ON UNIT   9 AT TIME STEP  3, STRESS PERIOD   2
 UBDSV4 SAVING "           WELLS" ON UNIT   9 AT TIME STEP  3, STRESS PERIOD   2
 UBDSV4 SAVING "   RIVER LEAKAGE" ON UNIT   9 AT TIME STEP  3, STRESS PERIOD   2
 UBDSV3 SAVING "              ET" ON UNIT   9 AT TIME STEP  3, STRESS PERIOD   2
 UBDSV4 SAVING " HEAD DEP BOUNDS" ON UNIT   9 AT TIME STEP  3, STRESS PERIOD   2
 UBDSV3 SAVING "        RECHARGE" ON UNIT   9 AT TIME STEP  3, STRESS PERIOD   2
 SOLVING FOR ZETA FOR LAYER     1 ZONE     2
     2 CALLS TO PCG ROUTINE FOR TIME STEP   3 IN STRESS PERIOD    2
     4 TOTAL ITERATIONS

 MAXIMUM HEAD CHANGE FOR EACH ITERATION (1 INDICATES THE FIRST INNER ITERATION):

    HEAD CHANGE    HEAD CHANGE    HEAD CHANGE    HEAD CHANGE    HEAD CHANGE 
   LAYER,ROW,COL  LAYER,ROW,COL  LAYER,ROW,COL  LAYER,ROW,COL  LAYER,ROW,COL
 ---------------------------------------------------------------------------
  1  -2.601      0 -0.3172E-01  0 -0.2759E-03  1 -0.1737E-05
   (  1, 12,  2)  (  1, 12,  3)  (  1, 13,  2)  (  1, 12,  3)

 MAXIMUM RESIDUAL FOR EACH ITERATION (1 INDICATES THE FIRST INNER ITERATION):

    RESIDUAL       RESIDUAL       RESIDUAL       RESIDUAL       RESIDUAL    
   LAYER,ROW,COL  LAYER,ROW,COL  LAYER,ROW,COL  LAYER,ROW,COL  LAYER,ROW,COL
 ---------------------------------------------------------------------------
  1  0.9409E-05  0  0.8953E-07  0  0.5042E-09  1  0.6963E-11
   (  1, 12,  3)  (  1, 13,  2)  (  1, 12,  3)  (  1, 13,  2)


 SOLVING FOR ZETA FOR LAYER     2 ZONE     2
     2 CALLS TO PCG ROUTINE FOR TIME STEP   3 IN STRESS PERIOD    2
     4 TOTAL ITERATIONS

 MAXIMUM HEAD CHANGE FOR EACH ITERATION (1 INDICATES THE FIRST INNER ITERATION):

    HEAD CHANGE    HEAD CHANGE    HEAD CHANGE    HEAD CHANGE    HEAD CHANGE 
   LAYER,ROW,COL  LAYER,ROW,COL  LAYER,ROW,COL  LAYER,ROW,COL  LAYER,ROW,COL
 ---------------------------------------------------------------------------
  1   8.659      0  0.4010E-01  0  0.3914E-03  1  0.3179E-06
   (  1, 18,  5)  (  1, 16,  4)  (  1, 15,  5)  (  1, 20,  5)

 MAXIMUM RESIDUAL FOR EACH ITERATION (1 INDICATES THE FIRST INNER ITERATION):

    RESIDUAL       RESIDUAL       RESIDUAL       RESIDUAL       RESIDUAL    
   LAYER,ROW,COL  LAYER,ROW,COL  LAYER,ROW,COL  LAYER,ROW,COL  LAYER,ROW,COL
 ---------------------------------------------------------------------------
  1 -0.1321E-04  0 -0.1154E-06  0  0.2095E-11  1  0.6807E-12
   (  1, 16,  4)  (  1, 15,  5)  (  1, 34,  4)  (  1, 16,  4)


 UBUDSV SAVING "      ZETASRF  1" ON UNIT170 AT TIME STEP  3, STRESS PERIOD    2


                      VOLUMETRIC SWI ZONE BUDGET FOR ENTIRE MODEL
                     AT END OF TIME STEP    3 IN STRESS PERIOD   2
                                      ZONE     1
  -----------------------------------------------------------------------------------

        CUMULATIVE VOLUMES      L**3       RATES FOR THIS TIME STEP      L**3/T
        ------------------                 ------------------------

              IN:                                      IN:
              ---                                      ---
             BOUNDARIES =   516505472.0000            BOUNDARIES =           0.2250
          CONSTANT HEAD =           0.0000         CONSTANT HEAD =           0.0000
            ZONE CHANGE =    91945912.0000           ZONE CHANGE =           0.1741
       ZONE CHG TIP/TOE =     3757066.7500      ZONE CHG TIP/TOE =           0.0000
            ZONE MIXING =           0.0000           ZONE MIXING =           0.0000

               TOTAL IN =   612208448.0000              TOTAL IN =           0.3991

             OUT:                                     OUT:
             ----                                     ----
             BOUNDARIES =   499343264.0000            BOUNDARIES =           0.4207
          CONSTANT HEAD =           0.0000         CONSTANT HEAD =           0.0000
            ZONE CHANGE =    23067656.0000           ZONE CHANGE =       7.1411E-03
       ZONE CHG TIP/TOE =     3424121.0000      ZONE CHG TIP/TOE =           0.0000
            ZONE MIXING =           0.0000           ZONE MIXING =           0.0000

              TOTAL OUT =   525835040.0000             TOTAL OUT =           0.4278

               IN - OUT =    86373408.0000              IN - OUT =      -2.8719E-02

    PERCENT DISCREPANCY =          15.18     PERCENT DISCREPANCY =          -6.95



                      VOLUMETRIC SWI ZONE BUDGET FOR ENTIRE MODEL
                     AT END OF TIME STEP    3 IN STRESS PERIOD   2
                                      ZONE     2
  -----------------------------------------------------------------------------------

        CUMULATIVE VOLUMES      L**3       RATES FOR THIS TIME STEP      L**3/T
        ------------------                 ------------------------

              IN:                                      IN:
              ---                                      ---
             BOUNDARIES =      710877.0000            BOUNDARIES =       2.2510E-02
          CONSTANT HEAD =           0.0000         CONSTANT HEAD =           0.0000
            ZONE CHANGE =    19874920.0000           ZONE CHANGE =       7.1827E-03
       ZONE CHG TIP/TOE =     3424121.0000      ZONE CHG TIP/TOE =           0.0000
            ZONE MIXING =           0.0000           ZONE MIXING =           0.0000

               TOTAL IN =    24009916.0000              TOTAL IN =       2.9692E-02

             OUT:                                     OUT:
             ----                                     ----
             BOUNDARIES =    27722404.0000            BOUNDARIES =       5.6641E-11
          CONSTANT HEAD =           0.0000         CONSTANT HEAD =           0.0000
            ZONE CHANGE =     3128207.0000           ZONE CHANGE =       2.9693E-02
       ZONE CHG TIP/TOE =     1440787.8750      ZONE CHG TIP/TOE =           0.0000
            ZONE MIXING =           0.0000           ZONE MIXING =           0.0000

              TOTAL OUT =    32291400.0000             TOTAL OUT =       2.9693E-02

               IN - OUT =    -8281484.0000              IN - OUT =      -6.7428E-07

    PERCENT DISCREPANCY =         -29.42     PERCENT DISCREPANCY =          -0.00


 HEAD WILL BE SAVED ON UNIT   37 AT END OF TIME STEP    3, STRESS PERIOD    2

 DRAWDOWN WILL BE SAVED ON UNIT   38 AT END OF TIME STEP    3, STRESS PERIOD    2
1
  VOLUMETRIC BUDGET FOR ENTIRE MODEL AT END OF TIME STEP    3, STRESS PERIOD   2
  ------------------------------------------------------------------------------

     CUMULATIVE VOLUMES      L**3       RATES FOR THIS TIME STEP      L**3/T
     ------------------                 ------------------------

           IN:                                      IN:
           ---                                      ---
             STORAGE =     9841198.0000               STORAGE =           0.1731
       CONSTANT HEAD =           0.0000         CONSTANT HEAD =           0.0000
               WELLS =           0.0000                 WELLS =           0.0000
       RIVER LEAKAGE =   112039328.0000         RIVER LEAKAGE =       3.9752E-02
                  ET =           0.0000                    ET =           0.0000
     HEAD DEP BOUNDS =      910704.6250       HEAD DEP BOUNDS =       3.1422E-02
            RECHARGE =   430138272.0000              RECHARGE =           0.2002
          SWIADDTOCH =           0.0000            SWIADDTOCH =           0.0000

            TOTAL IN =   552929536.0000              TOTAL IN =           0.4445

          OUT:                                     OUT:
          ----                                     ----
             STORAGE =        4968.1035               STORAGE =       8.4698E-06
       CONSTANT HEAD =           0.0000         CONSTANT HEAD =           0.0000
               WELLS =    18637776.0000                 WELLS =           0.3940
       RIVER LEAKAGE =    21615180.0000         RIVER LEAKAGE =       8.8844E-04
                  ET =   166022976.0000                    ET =       1.0680E-02
     HEAD DEP BOUNDS =   346661440.0000       HEAD DEP BOUNDS =       3.8892E-02
            RECHARGE =           0.0000              RECHARGE =           0.0000
          SWIADDTOCH =           0.0000            SWIADDTOCH =           0.0000

           TOTAL OUT =   552942336.0000             TOTAL OUT =           0.4445

            IN - OUT =      -12800.0000              IN - OUT =      -1.3113E-06

 PERCENT DISCREPANCY =          -0.00     PERCENT DISCREPANCY =          -0.00






         TIME SUMMARY AT END OF TIME STEP    3 IN STRESS PERIOD    2
                    SECONDS     MINUTES      HOURS       DAYS        YEARS
                    -----------------------------------------------------------
   TIME STEP LENGTH 1.57680E+07 2.62800E+05  4380.0      182.50     0.49966    
 STRESS PERIOD TIME 4.73040E+07 7.88400E+05  13140.      547.50      1.4990    
         TOTAL TIME 3.20090E+09 5.33484E+07 8.89140E+05  37048.      101.43    
1
 
 SOLVING FOR HEAD 
     4 CALLS TO PCG ROUTINE FOR TIME STEP   4 IN STRESS PERIOD    2
    15 TOTAL ITERATIONS

 MAXIMUM HEAD CHANGE FOR EACH ITERATION (1 INDICATES THE FIRST INNER ITERATION):

    HEAD CHANGE    HEAD CHANGE    HEAD CHANGE    HEAD CHANGE    HEAD CHANGE 
   LAYER,ROW,COL  LAYER,ROW,COL  LAYER,ROW,COL  LAYER,ROW,COL  LAYER,ROW,COL
 ---------------------------------------------------------------------------
  1  -1.232      0 -0.1885      0 -0.3760E-01  0  0.1953E-01  0 -0.5515E-02
   (  1, 18, 12)  (  2,  4, 15)  (  2,  3, 19)  (  2,  6, 12)  (  2,  5, 11)
  0 -0.1800E-02  0 -0.4733E-03  1 -0.7101E-01  0 -0.1462E-01  0 -0.5511E-02
   (  2,  7,  8)  (  2,  3, 32)  (  2, 18, 10)  (  2, 20,  8)  (  1,  4, 15)
  0 -0.1486E-02  0 -0.5058E-03  1 -0.2902E-02  0 -0.6052E-03  1  0.1234E-03
   (  2,  8, 15)  (  2,  6, 18)  (  2, 18, 10)  (  2, 20,  8)  (  2, 16, 13)

 MAXIMUM RESIDUAL FOR EACH ITERATION (1 INDICATES THE FIRST INNER ITERATION):

    RESIDUAL       RESIDUAL       RESIDUAL       RESIDUAL       RESIDUAL    
   LAYER,ROW,COL  LAYER,ROW,COL  LAYER,ROW,COL  LAYER,ROW,COL  LAYER,ROW,COL
 ---------------------------------------------------------------------------
  1  0.5023E-03  0 -0.1594E-03  0  0.5212E-04  0  0.1935E-04  0  0.6113E-05
   (  2, 19,  4)  (  2,  4, 14)  (  2,  5, 14)  (  2,  6, 12)  (  2,  7,  9)
  0 -0.1685E-05  0 -0.6546E-06  1  0.8837E-04  0  0.2750E-04  0  0.7504E-05
   (  1,  4, 14)  (  2, 34,  6)  (  1,  4, 15)  (  2,  4, 14)  (  2,  4, 14)
  0  0.2215E-05  0  0.7792E-06  1  0.2726E-05  0 -0.1011E-05  1 -0.4793E-06
   (  2,  4, 14)  (  1,  5, 14)  (  1, 17, 11)  (  2, 22, 11)  (  2, 19, 12)



 OUTPUT CONTROL FOR STRESS PERIOD    2   TIME STEP    4
    SAVE HEAD FOR ALL LAYERS
    SAVE DRAWDOWN FOR ALL LAYERS
    SAVE BUDGET
    PRINT BUDGET
 UBDSV1 SAVING "         STORAGE" ON UNIT   9 AT TIME STEP  4, STRESS PERIOD   2
 UBDSV2 SAVING "   CONSTANT HEAD" ON UNIT   9 AT TIME STEP  4, STRESS PERIOD   2
 UBDSV1 SAVING "FLOW RIGHT FACE " ON UNIT   9 AT TIME STEP  4, STRESS PERIOD   2
 UBDSV1 SAVING "FLOW FRONT FACE " ON UNIT   9 AT TIME STEP  4, STRESS PERIOD   2
 UBDSV1 SAVING "FLOW LOWER FACE " ON UNIT   9 AT TIME STEP  4, STRESS PERIOD   2
 UBDSV4 SAVING "           WELLS" ON UNIT   9 AT TIME STEP  4, STRESS PERIOD   2
 UBDSV4 SAVING "   RIVER LEAKAGE" ON UNIT   9 AT TIME STEP  4, STRESS PERIOD   2
 UBDSV3 SAVING "              ET" ON UNIT   9 AT TIME STEP  4, STRESS PERIOD   2
 UBDSV4 SAVING " HEAD DEP BOUNDS" ON UNIT   9 AT TIME STEP  4, STRESS PERIOD   2
 UBDSV3 SAVING "        RECHARGE" ON UNIT   9 AT TIME STEP  4, STRESS PERIOD   2
 SOLVING FOR ZETA FOR LAYER     1 ZONE     2
     2 CALLS TO PCG ROUTINE FOR TIME STEP   4 IN STRESS PERIOD    2
     4 TOTAL ITERATIONS

 MAXIMUM HEAD CHANGE FOR EACH ITERATION (1 INDICATES THE FIRST INNER ITERATION):

    HEAD CHANGE    HEAD CHANGE    HEAD CHANGE    HEAD CHANGE    HEAD CHANGE 
   LAYER,ROW,COL  LAYER,ROW,COL  LAYER,ROW,COL  LAYER,ROW,COL  LAYER,ROW,COL
 ---------------------------------------------------------------------------
  1   2.478      0 -0.2756E-01  0 -0.2033E-03  1 -0.1383E-05
   (  1, 18,  4)  (  1, 12,  3)  (  1, 13,  2)  (  1, 12,  3)

 MAXIMUM RESIDUAL FOR EACH ITERATION (1 INDICATES THE FIRST INNER ITERATION):

    RESIDUAL       RESIDUAL       RESIDUAL       RESIDUAL       RESIDUAL    
   LAYER,ROW,COL  LAYER,ROW,COL  LAYER,ROW,COL  LAYER,ROW,COL  LAYER,ROW,COL
 ---------------------------------------------------------------------------
  1  0.8200E-05  0  0.6463E-07  0  0.4030E-09  1  0.4632E-11
   (  1, 12,  3)  (  1, 13,  2)  (  1, 12,  3)  (  1, 13,  2)


 SOLVING FOR ZETA FOR LAYER     2 ZONE     2
     2 CALLS TO PCG ROUTINE FOR TIME STEP   4 IN STRESS PERIOD    2
     4 TOTAL ITERATIONS

 MAXIMUM HEAD CHANGE FOR EACH ITERATION (1 INDICATES THE FIRST INNER ITERATION):

    HEAD CHANGE    HEAD CHANGE    HEAD CHANGE    HEAD CHANGE    HEAD CHANGE 
   LAYER,ROW,COL  LAYER,ROW,COL  LAYER,ROW,COL  LAYER,ROW,COL  LAYER,ROW,COL
 ---------------------------------------------------------------------------
  1   8.997      0  0.5373E-01  0  0.6139E-03  1  0.2620E-06
   (  1, 18,  5)  (  1, 16,  4)  (  1, 15,  5)  (  1, 20,  5)

 MAXIMUM RESIDUAL FOR EACH ITERATION (1 INDICATES THE FIRST INNER ITERATION):

    RESIDUAL       RESIDUAL       RESIDUAL       RESIDUAL       RESIDUAL    
   LAYER,ROW,COL  LAYER,ROW,COL  LAYER,ROW,COL  LAYER,ROW,COL  LAYER,ROW,COL
 ---------------------------------------------------------------------------
  1 -0.1791E-04  0 -0.1864E-06  0  0.4010E-10  1  0.4940E-12
   (  1, 16,  4)  (  1, 15,  5)  (  1, 34,  4)  (  1, 16,  4)


 UBUDSV SAVING "      ZETASRF  1" ON UNIT170 AT TIME STEP  4, STRESS PERIOD    2


                      VOLUMETRIC SWI ZONE BUDGET FOR ENTIRE MODEL
                     AT END OF TIME STEP    4 IN STRESS PERIOD   2
                                      ZONE     1
  -----------------------------------------------------------------------------------

        CUMULATIVE VOLUMES      L**3       RATES FOR THIS TIME STEP      L**3/T
        ------------------                 ------------------------

              IN:                                      IN:
              ---                                      ---
             BOUNDARIES =   520152352.0000            BOUNDARIES =           0.2313
          CONSTANT HEAD =           0.0000         CONSTANT HEAD =           0.0000
            ZONE CHANGE =    94515320.0000           ZONE CHANGE =           0.1630
       ZONE CHG TIP/TOE =     3757066.7500      ZONE CHG TIP/TOE =           0.0000
            ZONE MIXING =           0.0000           ZONE MIXING =           0.0000

               TOTAL IN =   618424704.0000              TOTAL IN =           0.3942

             OUT:                                     OUT:
             ----                                     ----
             BOUNDARIES =   505856160.0000            BOUNDARIES =           0.4130
          CONSTANT HEAD =           0.0000         CONSTANT HEAD =           0.0000
            ZONE CHANGE =    23174952.0000           ZONE CHANGE =       6.8047E-03
       ZONE CHG TIP/TOE =     3424121.0000      ZONE CHG TIP/TOE =           0.0000
            ZONE MIXING =           0.0000           ZONE MIXING =           0.0000

              TOTAL OUT =   532455232.0000             TOTAL OUT =           0.4199

               IN - OUT =    85969472.0000              IN - OUT =      -2.5616E-02

    PERCENT DISCREPANCY =          14.94     PERCENT DISCREPANCY =          -6.29



                      VOLUMETRIC SWI ZONE BUDGET FOR ENTIRE MODEL
                     AT END OF TIME STEP    4 IN STRESS PERIOD   2
                                      ZONE     2
  -----------------------------------------------------------------------------------

        CUMULATIVE VOLUMES      L**3       RATES FOR THIS TIME STEP      L**3/T
        ------------------                 ------------------------

              IN:                                      IN:
              ---                                      ---
             BOUNDARIES =     1142289.7500            BOUNDARIES =       2.7360E-02
          CONSTANT HEAD =           0.0000         CONSTANT HEAD =           0.0000
            ZONE CHANGE =    19982752.0000           ZONE CHANGE =       6.8387E-03
       ZONE CHG TIP/TOE =     3424121.0000      ZONE CHG TIP/TOE =           0.0000
            ZONE MIXING =           0.0000           ZONE MIXING =           0.0000

               TOTAL IN =    24549162.0000              TOTAL IN =       3.4199E-02

             OUT:                                     OUT:
             ----                                     ----
             BOUNDARIES =    27722404.0000            BOUNDARIES =       4.3588E-11
          CONSTANT HEAD =           0.0000         CONSTANT HEAD =           0.0000
            ZONE CHANGE =     3667455.2500           ZONE CHANGE =       3.4199E-02
       ZONE CHG TIP/TOE =     1440787.8750      ZONE CHG TIP/TOE =           0.0000
            ZONE MIXING =           0.0000           ZONE MIXING =           0.0000

              TOTAL OUT =    32830648.0000             TOTAL OUT =       3.4199E-02

               IN - OUT =    -8281486.0000              IN - OUT =      -1.8626E-07

    PERCENT DISCREPANCY =         -28.87     PERCENT DISCREPANCY =          -0.00


 HEAD WILL BE SAVED ON UNIT   37 AT END OF TIME STEP    4, STRESS PERIOD    2

 DRAWDOWN WILL BE SAVED ON UNIT   38 AT END OF TIME STEP    4, STRESS PERIOD    2
1
  VOLUMETRIC BUDGET FOR ENTIRE MODEL AT END OF TIME STEP    4, STRESS PERIOD   2
  ------------------------------------------------------------------------------

     CUMULATIVE VOLUMES      L**3       RATES FOR THIS TIME STEP      L**3/T
     ------------------                 ------------------------

           IN:                                      IN:
           ---                                      ---
             STORAGE =    12275798.0000               STORAGE =           0.1544
       CONSTANT HEAD =           0.0000         CONSTANT HEAD =           0.0000
               WELLS =           0.0000                 WELLS =           0.0000
       RIVER LEAKAGE =   112694440.0000         RIVER LEAKAGE =       4.1547E-02
                  ET =           0.0000                    ET =           0.0000
     HEAD DEP BOUNDS =     1546884.1250       HEAD DEP BOUNDS =       4.0346E-02
            RECHARGE =   433294272.0000              RECHARGE =           0.2002
          SWIADDTOCH =           0.0000            SWIADDTOCH =           0.0000

            TOTAL IN =   559811392.0000              TOTAL IN =           0.4364

          OUT:                                     OUT:
          ----                                     ----
             STORAGE =        4968.1035               STORAGE =           0.0000
       CONSTANT HEAD =           0.0000         CONSTANT HEAD =           0.0000
               WELLS =    24850368.0000                 WELLS =           0.3940
       RIVER LEAKAGE =    21624992.0000         RIVER LEAKAGE =       6.2224E-04
                  ET =   166158240.0000                    ET =       8.5788E-03
     HEAD DEP BOUNDS =   347185664.0000       HEAD DEP BOUNDS =       3.3246E-02
            RECHARGE =           0.0000              RECHARGE =           0.0000
          SWIADDTOCH =           0.0000            SWIADDTOCH =           0.0000

           TOTAL OUT =   559824256.0000             TOTAL OUT =           0.4364

            IN - OUT =      -12864.0000              IN - OUT =      -5.0664E-07

 PERCENT DISCREPANCY =          -0.00     PERCENT DISCREPANCY =          -0.00






         TIME SUMMARY AT END OF TIME STEP    4 IN STRESS PERIOD    2
                    SECONDS     MINUTES      HOURS       DAYS        YEARS
                    -----------------------------------------------------------
   TIME STEP LENGTH 1.57680E+07 2.62800E+05  4380.0      182.50     0.49966    
 STRESS PERIOD TIME 6.30720E+07 1.05120E+06  17520.      730.00      1.9986    
         TOTAL TIME 3.21667E+09 5.36112E+07 8.93520E+05  37230.      101.93    
1
 
 SOLVING FOR HEAD 
     4 CALLS TO PCG ROUTINE FOR TIME STEP   5 IN STRESS PERIOD    2
    15 TOTAL ITERATIONS

 MAXIMUM HEAD CHANGE FOR EACH ITERATION (1 INDICATES THE FIRST INNER ITERATION):

    HEAD CHANGE    HEAD CHANGE    HEAD CHANGE    HEAD CHANGE    HEAD CHANGE 
   LAYER,ROW,COL  LAYER,ROW,COL  LAYER,ROW,COL  LAYER,ROW,COL  LAYER,ROW,COL
 ---------------------------------------------------------------------------
  1 -0.9039      0 -0.1368      0 -0.3788E-01  0  0.1438E-01  0  0.3104E-02
   (  1, 17, 12)  (  2,  5, 11)  (  2,  6,  8)  (  2,  6,  8)  (  2,  8, 14)
  0  0.1169E-02  0  0.3488E-03  1 -0.5482E-01  0 -0.1177E-01  0 -0.3049E-02
   (  1,  5, 16)  (  2,  4, 19)  (  2, 18, 10)  (  2, 14, 12)  (  2, 13, 17)
  0 -0.1072E-02  0 -0.3275E-03  1 -0.2433E-02  0 -0.5044E-03  1  0.9879E-04
   (  2, 35,  8)  (  2, 34,  9)  (  2, 18, 10)  (  2, 20,  8)  (  2, 16, 13)

 MAXIMUM RESIDUAL FOR EACH ITERATION (1 INDICATES THE FIRST INNER ITERATION):

    RESIDUAL       RESIDUAL       RESIDUAL       RESIDUAL       RESIDUAL    
   LAYER,ROW,COL  LAYER,ROW,COL  LAYER,ROW,COL  LAYER,ROW,COL  LAYER,ROW,COL
 ---------------------------------------------------------------------------
  1  0.5542E-03  0 -0.1520E-03  0  0.4705E-04  0  0.1296E-04  0 -0.4524E-05
   (  2, 19,  4)  (  2,  5, 10)  (  1, 18,  5)  (  2,  5, 16)  (  1,  5, 11)
  0 -0.1954E-05  0  0.4616E-06  1  0.6754E-04  0  0.1805E-04  0  0.4536E-05
   (  1,  5, 11)  (  2,  4, 19)  (  1, 29, 14)  (  2, 28, 14)  (  2, 29, 13)
  0 -0.1879E-05  0  0.4357E-06  1  0.2185E-05  0 -0.8017E-06  1 -0.3878E-06
   (  2, 28, 16)  (  2, 29, 15)  (  1, 17, 11)  (  2, 22, 11)  (  2, 19, 12)



 OUTPUT CONTROL FOR STRESS PERIOD    2   TIME STEP    5
    SAVE HEAD FOR ALL LAYERS
    SAVE DRAWDOWN FOR ALL LAYERS
    SAVE BUDGET
    PRINT BUDGET
 UBDSV1 SAVING "         STORAGE" ON UNIT   9 AT TIME STEP  5, STRESS PERIOD   2
 UBDSV2 SAVING "   CONSTANT HEAD" ON UNIT   9 AT TIME STEP  5, STRESS PERIOD   2
 UBDSV1 SAVING "FLOW RIGHT FACE " ON UNIT   9 AT TIME STEP  5, STRESS PERIOD   2
 UBDSV1 SAVING "FLOW FRONT FACE " ON UNIT   9 AT TIME STEP  5, STRESS PERIOD   2
 UBDSV1 SAVING "FLOW LOWER FACE " ON UNIT   9 AT TIME STEP  5, STRESS PERIOD   2
 UBDSV4 SAVING "           WELLS" ON UNIT   9 AT TIME STEP  5, STRESS PERIOD   2
 UBDSV4 SAVING "   RIVER LEAKAGE" ON UNIT   9 AT TIME STEP  5, STRESS PERIOD   2
 UBDSV3 SAVING "              ET" ON UNIT   9 AT TIME STEP  5, STRESS PERIOD   2
 UBDSV4 SAVING " HEAD DEP BOUNDS" ON UNIT   9 AT TIME STEP  5, STRESS PERIOD   2
 UBDSV3 SAVING "        RECHARGE" ON UNIT   9 AT TIME STEP  5, STRESS PERIOD   2
 SOLVING FOR ZETA FOR LAYER     1 ZONE     2
     2 CALLS TO PCG ROUTINE FOR TIME STEP   5 IN STRESS PERIOD    2
     4 TOTAL ITERATIONS

 MAXIMUM HEAD CHANGE FOR EACH ITERATION (1 INDICATES THE FIRST INNER ITERATION):

    HEAD CHANGE    HEAD CHANGE    HEAD CHANGE    HEAD CHANGE    HEAD CHANGE 
   LAYER,ROW,COL  LAYER,ROW,COL  LAYER,ROW,COL  LAYER,ROW,COL  LAYER,ROW,COL
 ---------------------------------------------------------------------------
  1   3.239      0 -0.2365E-01  0 -0.1641E-03  1 -0.9116E-06
   (  1, 18,  4)  (  1, 12,  3)  (  1, 13,  2)  (  1, 12,  3)

 MAXIMUM RESIDUAL FOR EACH ITERATION (1 INDICATES THE FIRST INNER ITERATION):

    RESIDUAL       RESIDUAL       RESIDUAL       RESIDUAL       RESIDUAL    
   LAYER,ROW,COL  LAYER,ROW,COL  LAYER,ROW,COL  LAYER,ROW,COL  LAYER,ROW,COL
 ---------------------------------------------------------------------------
  1  0.7122E-05  0  0.5213E-07  0  0.2426E-09  1  0.3353E-11
   (  1, 12,  3)  (  1, 13,  2)  (  1, 12,  3)  (  1, 13,  2)


 SOLVING FOR ZETA FOR LAYER     2 ZONE     2
     2 CALLS TO PCG ROUTINE FOR TIME STEP   5 IN STRESS PERIOD    2
     4 TOTAL ITERATIONS

 MAXIMUM HEAD CHANGE FOR EACH ITERATION (1 INDICATES THE FIRST INNER ITERATION):

    HEAD CHANGE    HEAD CHANGE    HEAD CHANGE    HEAD CHANGE    HEAD CHANGE 
   LAYER,ROW,COL  LAYER,ROW,COL  LAYER,ROW,COL  LAYER,ROW,COL  LAYER,ROW,COL
 ---------------------------------------------------------------------------
  1   9.028      0  0.6958E-01  0  0.8915E-03  1 -0.3213E-06
   (  1, 18,  5)  (  1, 16,  4)  (  1, 15,  5)  (  1, 34,  4)

 MAXIMUM RESIDUAL FOR EACH ITERATION (1 INDICATES THE FIRST INNER ITERATION):

    RESIDUAL       RESIDUAL       RESIDUAL       RESIDUAL       RESIDUAL    
   LAYER,ROW,COL  LAYER,ROW,COL  LAYER,ROW,COL  LAYER,ROW,COL  LAYER,ROW,COL
 ---------------------------------------------------------------------------
  1 -0.2352E-04  0 -0.2795E-06  0  0.1005E-09  1  0.9130E-12
   (  1, 16,  4)  (  1, 15,  5)  (  1, 34,  4)  (  1, 33,  5)


 UBUDSV SAVING "      ZETASRF  1" ON UNIT170 AT TIME STEP  5, STRESS PERIOD    2


                      VOLUMETRIC SWI ZONE BUDGET FOR ENTIRE MODEL
                     AT END OF TIME STEP    5 IN STRESS PERIOD   2
                                      ZONE     1
  -----------------------------------------------------------------------------------

        CUMULATIVE VOLUMES      L**3       RATES FOR THIS TIME STEP      L**3/T
        ------------------                 ------------------------

              IN:                                      IN:
              ---                                      ---
             BOUNDARIES =   523864480.0000            BOUNDARIES =           0.2354
          CONSTANT HEAD =           0.0000         CONSTANT HEAD =           0.0000
            ZONE CHANGE =    96948104.0000           ZONE CHANGE =           0.1543
       ZONE CHG TIP/TOE =     3757066.7500      ZONE CHG TIP/TOE =           0.0000
            ZONE MIXING =           0.0000           ZONE MIXING =           0.0000

               TOTAL IN =   624569664.0000              TOTAL IN =           0.3897

             OUT:                                     OUT:
             ----                                     ----
             BOUNDARIES =   512283904.0000            BOUNDARIES =           0.4076
          CONSTANT HEAD =           0.0000         CONSTANT HEAD =           0.0000
            ZONE CHANGE =    23274762.0000           ZONE CHANGE =       6.3299E-03
       ZONE CHG TIP/TOE =     3424121.0000      ZONE CHG TIP/TOE =           0.0000
            ZONE MIXING =           0.0000           ZONE MIXING =           0.0000

              TOTAL OUT =   538982784.0000             TOTAL OUT =           0.4140

               IN - OUT =    85586880.0000              IN - OUT =      -2.4267E-02

    PERCENT DISCREPANCY =          14.71     PERCENT DISCREPANCY =          -6.04



                      VOLUMETRIC SWI ZONE BUDGET FOR ENTIRE MODEL
                     AT END OF TIME STEP    5 IN STRESS PERIOD   2
                                      ZONE     2
  -----------------------------------------------------------------------------------

        CUMULATIVE VOLUMES      L**3       RATES FOR THIS TIME STEP      L**3/T
        ------------------                 ------------------------

              IN:                                      IN:
              ---                                      ---
             BOUNDARIES =     1626950.6250            BOUNDARIES =       3.0737E-02
          CONSTANT HEAD =           0.0000         CONSTANT HEAD =           0.0000
            ZONE CHANGE =    20082938.0000           ZONE CHANGE =       6.3537E-03
       ZONE CHG TIP/TOE =     3436602.2500      ZONE CHG TIP/TOE =       7.9156E-04
            ZONE MIXING =           0.0000           ZONE MIXING =           0.0000

               TOTAL IN =    25146490.0000              TOTAL IN =       3.7882E-02

             OUT:                                     OUT:
             ----                                     ----
             BOUNDARIES =    27722404.0000            BOUNDARIES =       4.3141E-11
          CONSTANT HEAD =           0.0000         CONSTANT HEAD =           0.0000
            ZONE CHANGE =     4252303.5000           ZONE CHANGE =       3.7091E-02
       ZONE CHG TIP/TOE =     1440787.8750      ZONE CHG TIP/TOE =           0.0000
            ZONE MIXING =           0.0000           ZONE MIXING =           0.0000

              TOTAL OUT =    33415496.0000             TOTAL OUT =       3.7091E-02

               IN - OUT =    -8269006.0000              IN - OUT =       7.9141E-04

    PERCENT DISCREPANCY =         -28.24     PERCENT DISCREPANCY =           2.11


 HEAD WILL BE SAVED ON UNIT   37 AT END OF TIME STEP    5, STRESS PERIOD    2

 DRAWDOWN WILL BE SAVED ON UNIT   38 AT END OF TIME STEP    5, STRESS PERIOD    2
1
  VOLUMETRIC BUDGET FOR ENTIRE MODEL AT END OF TIME STEP    5, STRESS PERIOD   2
  ------------------------------------------------------------------------------

     CUMULATIVE VOLUMES      L**3       RATES FOR THIS TIME STEP      L**3/T
     ------------------                 ------------------------

           IN:                                      IN:
           ---                                      ---
             STORAGE =    14506750.0000               STORAGE =           0.1415
       CONSTANT HEAD =           0.0000         CONSTANT HEAD =           0.0000
               WELLS =           0.0000                 WELLS =           0.0000
       RIVER LEAKAGE =   113361992.0000         RIVER LEAKAGE =       4.2336E-02
                  ET =           0.0000                    ET =           0.0000
     HEAD DEP BOUNDS =     2288855.5000       HEAD DEP BOUNDS =       4.7056E-02
            RECHARGE =   436450272.0000              RECHARGE =           0.2002
          SWIADDTOCH =           0.0000            SWIADDTOCH =           0.0000

            TOTAL IN =   566607872.0000              TOTAL IN =           0.4310

          OUT:                                     OUT:
          ----                                     ----
             STORAGE =        4968.1035               STORAGE =           0.0000
       CONSTANT HEAD =           0.0000         CONSTANT HEAD =           0.0000
               WELLS =    31062960.0000                 WELLS =           0.3940
       RIVER LEAKAGE =    21630212.0000         RIVER LEAKAGE =       3.3101E-04
                  ET =   166273968.0000                    ET =       7.3393E-03
     HEAD DEP BOUNDS =   347648608.0000       HEAD DEP BOUNDS =       2.9360E-02
            RECHARGE =           0.0000              RECHARGE =           0.0000
          SWIADDTOCH =           0.0000            SWIADDTOCH =           0.0000

           TOTAL OUT =   566620736.0000             TOTAL OUT =           0.4310

            IN - OUT =      -12864.0000              IN - OUT =      -2.0862E-07

 PERCENT DISCREPANCY =          -0.00     PERCENT DISCREPANCY =          -0.00






         TIME SUMMARY AT END OF TIME STEP    5 IN STRESS PERIOD    2
                    SECONDS     MINUTES      HOURS       DAYS        YEARS
                    -----------------------------------------------------------
   TIME STEP LENGTH 1.57680E+07 2.62800E+05  4380.0      182.50     0.49966    
 STRESS PERIOD TIME 7.88400E+07 1.31400E+06  21900.      912.50      2.4983    
         TOTAL TIME 3.23244E+09 5.38740E+07 8.97900E+05  37413.      102.43    
1
 
 SOLVING FOR HEAD 

 CELL CONVERSIONS FOR ITER.=  2  LAYER=  1  STEP=  6  PERIOD=   2   (ROW,COL)
    DRY( 48, 26)   
     4 CALLS TO PCG ROUTINE FOR TIME STEP   6 IN STRESS PERIOD    2
    14 TOTAL ITERATIONS

 MAXIMUM HEAD CHANGE FOR EACH ITERATION (1 INDICATES THE FIRST INNER ITERATION):

    HEAD CHANGE    HEAD CHANGE    HEAD CHANGE    HEAD CHANGE    HEAD CHANGE 
   LAYER,ROW,COL  LAYER,ROW,COL  LAYER,ROW,COL  LAYER,ROW,COL  LAYER,ROW,COL
 ---------------------------------------------------------------------------
  1 -0.7052      0 -0.1118      0 -0.2785E-01  0 -0.1604E-01  0 -0.2870E-02
   (  1, 17, 13)  (  2, 17,  3)  (  2,  6,  8)  (  1, 35,  8)  (  2, 34,  9)
  0  0.7268E-03  1 -0.8523E-01  0  0.2247E-01  0  0.7246E-02  0 -0.2045E-02
   (  2,  7, 18)  (  1,  5, 11)  (  2,  6, 12)  (  2,  5, 14)  (  2,  4, 11)
  0 -0.8237E-03  1 -0.1964E-02  0 -0.3834E-03  1  0.9209E-04
   (  1,  4, 13)  (  2, 18, 10)  (  2, 20,  8)  (  2, 11,  9)

 MAXIMUM RESIDUAL FOR EACH ITERATION (1 INDICATES THE FIRST INNER ITERATION):

    RESIDUAL       RESIDUAL       RESIDUAL       RESIDUAL       RESIDUAL    
   LAYER,ROW,COL  LAYER,ROW,COL  LAYER,ROW,COL  LAYER,ROW,COL  LAYER,ROW,COL
 ---------------------------------------------------------------------------
  1  0.5681E-03  0 -0.1149E-03  0  0.4424E-04  0  0.1096E-04  0 -0.3574E-05
   (  2, 18,  4)  (  2,  5, 10)  (  1, 18,  5)  (  2,  5, 15)  (  1,  5, 11)
  0 -0.1198E-05  1 -0.2962E-03  0 -0.5480E-04  0 -0.1808E-04  0  0.5665E-05
   (  1,  5, 11)  (  1,  6, 15)  (  2,  5, 15)  (  2,  6, 14)  (  2,  7, 14)
  0  0.1603E-05  1  0.1732E-05  0 -0.7137E-06  1 -0.3364E-06
   (  2,  7, 14)  (  1, 17, 11)  (  2, 22, 11)  (  2, 19, 12)



 OUTPUT CONTROL FOR STRESS PERIOD    2   TIME STEP    6
    SAVE HEAD FOR ALL LAYERS
    SAVE DRAWDOWN FOR ALL LAYERS
    SAVE BUDGET
    PRINT BUDGET
 UBDSV1 SAVING "         STORAGE" ON UNIT   9 AT TIME STEP  6, STRESS PERIOD   2
 UBDSV2 SAVING "   CONSTANT HEAD" ON UNIT   9 AT TIME STEP  6, STRESS PERIOD   2
 UBDSV1 SAVING "FLOW RIGHT FACE " ON UNIT   9 AT TIME STEP  6, STRESS PERIOD   2
 UBDSV1 SAVING "FLOW FRONT FACE " ON UNIT   9 AT TIME STEP  6, STRESS PERIOD   2
 UBDSV1 SAVING "FLOW LOWER FACE " ON UNIT   9 AT TIME STEP  6, STRESS PERIOD   2
 UBDSV4 SAVING "           WELLS" ON UNIT   9 AT TIME STEP  6, STRESS PERIOD   2
 UBDSV4 SAVING "   RIVER LEAKAGE" ON UNIT   9 AT TIME STEP  6, STRESS PERIOD   2
 UBDSV3 SAVING "              ET" ON UNIT   9 AT TIME STEP  6, STRESS PERIOD   2
 UBDSV4 SAVING " HEAD DEP BOUNDS" ON UNIT   9 AT TIME STEP  6, STRESS PERIOD   2
 UBDSV3 SAVING "        RECHARGE" ON UNIT   9 AT TIME STEP  6, STRESS PERIOD   2
 SOLVING FOR ZETA FOR LAYER     1 ZONE     2
     2 CALLS TO PCG ROUTINE FOR TIME STEP   6 IN STRESS PERIOD    2
     4 TOTAL ITERATIONS

 MAXIMUM HEAD CHANGE FOR EACH ITERATION (1 INDICATES THE FIRST INNER ITERATION):

    HEAD CHANGE    HEAD CHANGE    HEAD CHANGE    HEAD CHANGE    HEAD CHANGE 
   LAYER,ROW,COL  LAYER,ROW,COL  LAYER,ROW,COL  LAYER,ROW,COL  LAYER,ROW,COL
 ---------------------------------------------------------------------------
  1   3.800      0  0.2159E-01  0 -0.1421E-03  1 -0.6807E-06
   (  1, 18,  4)  (  1, 20,  3)  (  1, 13,  2)  (  1, 12,  3)

 MAXIMUM RESIDUAL FOR EACH ITERATION (1 INDICATES THE FIRST INNER ITERATION):

    RESIDUAL       RESIDUAL       RESIDUAL       RESIDUAL       RESIDUAL    
   LAYER,ROW,COL  LAYER,ROW,COL  LAYER,ROW,COL  LAYER,ROW,COL  LAYER,ROW,COL
 ---------------------------------------------------------------------------
  1  0.6242E-05  0  0.4463E-07  0  0.1925E-09  1  0.1947E-11
   (  1, 12,  3)  (  1, 13,  2)  (  1, 12,  3)  (  1, 13,  2)


 SOLVING FOR ZETA FOR LAYER     2 ZONE     2
     2 CALLS TO PCG ROUTINE FOR TIME STEP   6 IN STRESS PERIOD    2
     5 TOTAL ITERATIONS

 MAXIMUM HEAD CHANGE FOR EACH ITERATION (1 INDICATES THE FIRST INNER ITERATION):

    HEAD CHANGE    HEAD CHANGE    HEAD CHANGE    HEAD CHANGE    HEAD CHANGE 
   LAYER,ROW,COL  LAYER,ROW,COL  LAYER,ROW,COL  LAYER,ROW,COL  LAYER,ROW,COL
 ---------------------------------------------------------------------------
  1   8.334      0  0.8726E-01  0  0.1189E-02  0 -0.5786E-06  1  0.3314E-06
   (  1, 17,  5)  (  1, 16,  4)  (  1, 15,  5)  (  1, 34,  4)  (  1, 20,  5)

 MAXIMUM RESIDUAL FOR EACH ITERATION (1 INDICATES THE FIRST INNER ITERATION):

    RESIDUAL       RESIDUAL       RESIDUAL       RESIDUAL       RESIDUAL    
   LAYER,ROW,COL  LAYER,ROW,COL  LAYER,ROW,COL  LAYER,ROW,COL  LAYER,ROW,COL
 ---------------------------------------------------------------------------
  1 -0.2994E-04  0 -0.3878E-06  0  0.1826E-09  0  0.1116E-11  1 -0.2468E-12
   (  1, 16,  4)  (  1, 15,  5)  (  1, 34,  4)  (  1, 33,  5)  (  1, 16,  4)


 UBUDSV SAVING "      ZETASRF  1" ON UNIT170 AT TIME STEP  6, STRESS PERIOD    2


                      VOLUMETRIC SWI ZONE BUDGET FOR ENTIRE MODEL
                     AT END OF TIME STEP    6 IN STRESS PERIOD   2
                                      ZONE     1
  -----------------------------------------------------------------------------------

        CUMULATIVE VOLUMES      L**3       RATES FOR THIS TIME STEP      L**3/T
        ------------------                 ------------------------

              IN:                                      IN:
              ---                                      ---
             BOUNDARIES =   527627072.0000            BOUNDARIES =           0.2386
          CONSTANT HEAD =           0.0000         CONSTANT HEAD =           0.0000
            ZONE CHANGE =    99128840.0000           ZONE CHANGE =           0.1383
       ZONE CHG TIP/TOE =     3797764.0000      ZONE CHG TIP/TOE =       2.5810E-03
            ZONE MIXING =           0.0000           ZONE MIXING =           0.0000

               TOTAL IN =   630553664.0000              TOTAL IN =           0.3795

             OUT:                                     OUT:
             ----                                     ----
             BOUNDARIES =   518626848.0000            BOUNDARIES =           0.4023
          CONSTANT HEAD =           0.0000         CONSTANT HEAD =           0.0000
            ZONE CHANGE =    23368474.0000           ZONE CHANGE =       5.9432E-03
       ZONE CHG TIP/TOE =     3487730.5000      ZONE CHG TIP/TOE =       4.0341E-03
            ZONE MIXING =           0.0000           ZONE MIXING =           0.0000

              TOTAL OUT =   545483072.0000             TOTAL OUT =           0.4122

               IN - OUT =    85070592.0000              IN - OUT =      -3.2739E-02

    PERCENT DISCREPANCY =          14.47     PERCENT DISCREPANCY =          -8.27



                      VOLUMETRIC SWI ZONE BUDGET FOR ENTIRE MODEL
                     AT END OF TIME STEP    6 IN STRESS PERIOD   2
                                      ZONE     2
  -----------------------------------------------------------------------------------

        CUMULATIVE VOLUMES      L**3       RATES FOR THIS TIME STEP      L**3/T
        ------------------                 ------------------------

              IN:                                      IN:
              ---                                      ---
             BOUNDARIES =     2150889.0000            BOUNDARIES =       3.3228E-02
          CONSTANT HEAD =           0.0000         CONSTANT HEAD =           0.0000
            ZONE CHANGE =    20176938.0000           ZONE CHANGE =       5.9615E-03
       ZONE CHG TIP/TOE =     3578486.5000      ZONE CHG TIP/TOE =       8.9982E-03
            ZONE MIXING =           0.0000           ZONE MIXING =           0.0000

               TOTAL IN =    25906312.0000              TOTAL IN =       4.8188E-02

             OUT:                                     OUT:
             ----                                     ----
             BOUNDARIES =    27722404.0000            BOUNDARIES =       4.2304E-11
          CONSTANT HEAD =           0.0000         CONSTANT HEAD =           0.0000
            ZONE CHANGE =     4796434.5000           ZONE CHANGE =       3.4509E-02
       ZONE CHG TIP/TOE =     1481485.1250      ZONE CHG TIP/TOE =       2.5810E-03
            ZONE MIXING =           0.0000           ZONE MIXING =           0.0000

              TOTAL OUT =    34000324.0000             TOTAL OUT =       3.7090E-02

               IN - OUT =    -8094012.0000              IN - OUT =       1.1098E-02

    PERCENT DISCREPANCY =         -27.02     PERCENT DISCREPANCY =          26.03


 HEAD WILL BE SAVED ON UNIT   37 AT END OF TIME STEP    6, STRESS PERIOD    2

 DRAWDOWN WILL BE SAVED ON UNIT   38 AT END OF TIME STEP    6, STRESS PERIOD    2
1
  VOLUMETRIC BUDGET FOR ENTIRE MODEL AT END OF TIME STEP    6, STRESS PERIOD   2
  ------------------------------------------------------------------------------

     CUMULATIVE VOLUMES      L**3       RATES FOR THIS TIME STEP      L**3/T
     ------------------                 ------------------------

           IN:                                      IN:
           ---                                      ---
             STORAGE =    16563162.0000               STORAGE =           0.1304
       CONSTANT HEAD =           0.0000         CONSTANT HEAD =           0.0000
               WELLS =           0.0000                 WELLS =           0.0000
       RIVER LEAKAGE =   114036144.0000         RIVER LEAKAGE =       4.2754E-02
                  ET =           0.0000                    ET =           0.0000
     HEAD DEP BOUNDS =     3111821.7500       HEAD DEP BOUNDS =       5.2192E-02
            RECHARGE =   439603264.0000              RECHARGE =           0.2000
          SWIADDTOCH =           0.0000            SWIADDTOCH =           0.0000

            TOTAL IN =   573314368.0000              TOTAL IN =           0.4253

          OUT:                                     OUT:
          ----                                     ----
             STORAGE =        4968.1035               STORAGE =           0.0000
       CONSTANT HEAD =           0.0000         CONSTANT HEAD =           0.0000
               WELLS =    37275552.0000                 WELLS =           0.3940
       RIVER LEAKAGE =    21630804.0000         RIVER LEAKAGE =       3.7541E-05
                  ET =   166350336.0000                    ET =       4.8433E-03
     HEAD DEP BOUNDS =   348065568.0000       HEAD DEP BOUNDS =       2.6444E-02
            RECHARGE =           0.0000              RECHARGE =           0.0000
          SWIADDTOCH =           0.0000            SWIADDTOCH =           0.0000

           TOTAL OUT =   573327232.0000             TOTAL OUT =           0.4253

            IN - OUT =      -12864.0000              IN - OUT =       2.3842E-07

 PERCENT DISCREPANCY =          -0.00     PERCENT DISCREPANCY =           0.00






         TIME SUMMARY AT END OF TIME STEP    6 IN STRESS PERIOD    2
                    SECONDS     MINUTES      HOURS       DAYS        YEARS
                    -----------------------------------------------------------
   TIME STEP LENGTH 1.57680E+07 2.62800E+05  4380.0      182.50     0.49966    
 STRESS PERIOD TIME 9.46080E+07 1.57680E+06  26280.      1095.0      2.9979    
         TOTAL TIME 3.24821E+09 5.41368E+07 9.02280E+05  37595.      102.93    
1
 
 SOLVING FOR HEAD 

 CELL CONVERSIONS FOR ITER.=  2  LAYER=  1  STEP=  7  PERIOD=   2   (ROW,COL)
    DRY( 41, 32)   DRY( 46, 26)   
     4 CALLS TO PCG ROUTINE FOR TIME STEP   7 IN STRESS PERIOD    2
    13 TOTAL ITERATIONS

 MAXIMUM HEAD CHANGE FOR EACH ITERATION (1 INDICATES THE FIRST INNER ITERATION):

    HEAD CHANGE    HEAD CHANGE    HEAD CHANGE    HEAD CHANGE    HEAD CHANGE 
   LAYER,ROW,COL  LAYER,ROW,COL  LAYER,ROW,COL  LAYER,ROW,COL  LAYER,ROW,COL
 ---------------------------------------------------------------------------
  1 -0.5752      0 -0.1026      0  0.2524E-01  0 -0.1401E-01  0 -0.2909E-02
   (  1, 17, 15)  (  2, 19,  6)  (  2,  4, 14)  (  1, 35,  8)  (  2, 34,  9)
  0 -0.9897E-03  1 -0.3679E-01  0 -0.8460E-02  0 -0.3239E-02  0 -0.8206E-03
   (  2,  7,  8)  (  2, 18, 11)  (  2, 14, 13)  (  2,  4, 14)  (  2,  6, 12)
  1 -0.1693E-02  0 -0.3232E-03  1  0.1069E-03
   (  2, 18, 10)  (  2, 15, 12)  (  2,  5, 11)

 MAXIMUM RESIDUAL FOR EACH ITERATION (1 INDICATES THE FIRST INNER ITERATION):

    RESIDUAL       RESIDUAL       RESIDUAL       RESIDUAL       RESIDUAL    
   LAYER,ROW,COL  LAYER,ROW,COL  LAYER,ROW,COL  LAYER,ROW,COL  LAYER,ROW,COL
 ---------------------------------------------------------------------------
  1  0.4572E-03  0  0.8309E-04  0  0.3290E-04  0  0.9115E-05  0  0.3144E-05
   (  2, 19,  6)  (  1,  4, 16)  (  2,  5, 14)  (  2,  6, 12)  (  2,  7,  9)
  0  0.1157E-05  1  0.4978E-04  0  0.1289E-04  0  0.4691E-05  0  0.1397E-05
   (  2,  6, 14)  (  2, 46, 26)  (  2,  5, 15)  (  2, 47, 25)  (  2, 47, 25)
  1  0.1337E-05  0 -0.6605E-06  1 -0.3195E-06
   (  1, 17, 11)  (  2, 22, 11)  (  2, 19, 12)



 OUTPUT CONTROL FOR STRESS PERIOD    2   TIME STEP    7
    SAVE HEAD FOR ALL LAYERS
    SAVE DRAWDOWN FOR ALL LAYERS
    SAVE BUDGET
    PRINT BUDGET
 UBDSV1 SAVING "         STORAGE" ON UNIT   9 AT TIME STEP  7, STRESS PERIOD   2
 UBDSV2 SAVING "   CONSTANT HEAD" ON UNIT   9 AT TIME STEP  7, STRESS PERIOD   2
 UBDSV1 SAVING "FLOW RIGHT FACE " ON UNIT   9 AT TIME STEP  7, STRESS PERIOD   2
 UBDSV1 SAVING "FLOW FRONT FACE " ON UNIT   9 AT TIME STEP  7, STRESS PERIOD   2
 UBDSV1 SAVING "FLOW LOWER FACE " ON UNIT   9 AT TIME STEP  7, STRESS PERIOD   2
 UBDSV4 SAVING "           WELLS" ON UNIT   9 AT TIME STEP  7, STRESS PERIOD   2
 UBDSV4 SAVING "   RIVER LEAKAGE" ON UNIT   9 AT TIME STEP  7, STRESS PERIOD   2
 UBDSV3 SAVING "              ET" ON UNIT   9 AT TIME STEP  7, STRESS PERIOD   2
 UBDSV4 SAVING " HEAD DEP BOUNDS" ON UNIT   9 AT TIME STEP  7, STRESS PERIOD   2
 UBDSV3 SAVING "        RECHARGE" ON UNIT   9 AT TIME STEP  7, STRESS PERIOD   2
 SOLVING FOR ZETA FOR LAYER     1 ZONE     2
     2 CALLS TO PCG ROUTINE FOR TIME STEP   7 IN STRESS PERIOD    2
     4 TOTAL ITERATIONS

 MAXIMUM HEAD CHANGE FOR EACH ITERATION (1 INDICATES THE FIRST INNER ITERATION):

    HEAD CHANGE    HEAD CHANGE    HEAD CHANGE    HEAD CHANGE    HEAD CHANGE 
   LAYER,ROW,COL  LAYER,ROW,COL  LAYER,ROW,COL  LAYER,ROW,COL  LAYER,ROW,COL
 ---------------------------------------------------------------------------
  1   3.713      0  0.2324E-01  0  0.1403E-03  1  0.8473E-06
   (  1, 17,  4)  (  1, 20,  3)  (  1, 12,  3)  (  1, 13,  2)

 MAXIMUM RESIDUAL FOR EACH ITERATION (1 INDICATES THE FIRST INNER ITERATION):

    RESIDUAL       RESIDUAL       RESIDUAL       RESIDUAL       RESIDUAL    
   LAYER,ROW,COL  LAYER,ROW,COL  LAYER,ROW,COL  LAYER,ROW,COL  LAYER,ROW,COL
 ---------------------------------------------------------------------------
  1 -0.6543E-05  0 -0.4363E-07  0 -0.2757E-09  1 -0.1935E-11
   (  1, 20,  3)  (  1, 12,  3)  (  1, 13,  2)  (  1, 12,  3)


 SOLVING FOR ZETA FOR LAYER     2 ZONE     2
     2 CALLS TO PCG ROUTINE FOR TIME STEP   7 IN STRESS PERIOD    2
     5 TOTAL ITERATIONS

 MAXIMUM HEAD CHANGE FOR EACH ITERATION (1 INDICATES THE FIRST INNER ITERATION):

    HEAD CHANGE    HEAD CHANGE    HEAD CHANGE    HEAD CHANGE    HEAD CHANGE 
   LAYER,ROW,COL  LAYER,ROW,COL  LAYER,ROW,COL  LAYER,ROW,COL  LAYER,ROW,COL
 ---------------------------------------------------------------------------
  1   7.462      0  0.1158      0  0.1662E-02  0 -0.8531E-05  1  0.2518E-06
   (  1, 18,  6)  (  1, 16,  4)  (  1, 15,  5)  (  1, 19,  5)  (  1, 18,  6)

 MAXIMUM RESIDUAL FOR EACH ITERATION (1 INDICATES THE FIRST INNER ITERATION):

    RESIDUAL       RESIDUAL       RESIDUAL       RESIDUAL       RESIDUAL    
   LAYER,ROW,COL  LAYER,ROW,COL  LAYER,ROW,COL  LAYER,ROW,COL  LAYER,ROW,COL
 ---------------------------------------------------------------------------
  1 -0.4095E-04  0 -0.5786E-06  0  0.2742E-08  0  0.3939E-10  1 -0.9447E-12
   (  1, 16,  4)  (  1, 15,  5)  (  1, 19,  5)  (  1, 18,  6)  (  1, 19,  5)


 UBUDSV SAVING "      ZETASRF  1" ON UNIT170 AT TIME STEP  7, STRESS PERIOD    2


                      VOLUMETRIC SWI ZONE BUDGET FOR ENTIRE MODEL
                     AT END OF TIME STEP    7 IN STRESS PERIOD   2
                                      ZONE     1
  -----------------------------------------------------------------------------------

        CUMULATIVE VOLUMES      L**3       RATES FOR THIS TIME STEP      L**3/T
        ------------------                 ------------------------

              IN:                                      IN:
              ---                                      ---
             BOUNDARIES =   531429888.0000            BOUNDARIES =           0.2412
          CONSTANT HEAD =           0.0000         CONSTANT HEAD =           0.0000
            ZONE CHANGE =   101221504.0000           ZONE CHANGE =           0.1327
       ZONE CHG TIP/TOE =     3864268.5000      ZONE CHG TIP/TOE =       4.2177E-03
            ZONE MIXING =           0.0000           ZONE MIXING =           0.0000

               TOTAL IN =   636515648.0000              TOTAL IN =           0.3781

             OUT:                                     OUT:
             ----                                     ----
             BOUNDARIES =   524903008.0000            BOUNDARIES =           0.3980
          CONSTANT HEAD =           0.0000         CONSTANT HEAD =           0.0000
            ZONE CHANGE =    23452402.0000           ZONE CHANGE =       5.3227E-03
       ZONE CHG TIP/TOE =     3593094.2500      ZONE CHG TIP/TOE =       6.6821E-03
            ZONE MIXING =           0.0000           ZONE MIXING =           0.0000

              TOTAL OUT =   551948480.0000             TOTAL OUT =           0.4100

               IN - OUT =    84567168.0000              IN - OUT =      -3.1929E-02

    PERCENT DISCREPANCY =          14.23     PERCENT DISCREPANCY =          -8.10



                      VOLUMETRIC SWI ZONE BUDGET FOR ENTIRE MODEL
                     AT END OF TIME STEP    7 IN STRESS PERIOD   2
                                      ZONE     2
  -----------------------------------------------------------------------------------

        CUMULATIVE VOLUMES      L**3       RATES FOR THIS TIME STEP      L**3/T
        ------------------                 ------------------------

              IN:                                      IN:
              ---                                      ---
             BOUNDARIES =     2714322.0000            BOUNDARIES =       3.5733E-02
          CONSTANT HEAD =           0.0000         CONSTANT HEAD =           0.0000
            ZONE CHANGE =    20259296.0000           ZONE CHANGE =       5.2231E-03
       ZONE CHG TIP/TOE =     3716717.0000      ZONE CHG TIP/TOE =       8.7665E-03
            ZONE MIXING =           0.0000           ZONE MIXING =           0.0000

               TOTAL IN =    26690334.0000              TOTAL IN =       4.9722E-02

             OUT:                                     OUT:
             ----                                     ----
             BOUNDARIES =    27722404.0000            BOUNDARIES =       6.1177E-11
          CONSTANT HEAD =           0.0000         CONSTANT HEAD =           0.0000
            ZONE CHANGE =     5329286.0000           ZONE CHANGE =       3.3793E-02
       ZONE CHG TIP/TOE =     1546189.5000      ZONE CHG TIP/TOE =       4.1035E-03
            ZONE MIXING =           0.0000           ZONE MIXING =           0.0000

              TOTAL OUT =    34597880.0000             TOTAL OUT =       3.7897E-02

               IN - OUT =    -7907546.0000              IN - OUT =       1.1826E-02

    PERCENT DISCREPANCY =         -25.80     PERCENT DISCREPANCY =          26.99


 HEAD WILL BE SAVED ON UNIT   37 AT END OF TIME STEP    7, STRESS PERIOD    2

 DRAWDOWN WILL BE SAVED ON UNIT   38 AT END OF TIME STEP    7, STRESS PERIOD    2
1
  VOLUMETRIC BUDGET FOR ENTIRE MODEL AT END OF TIME STEP    7, STRESS PERIOD   2
  ------------------------------------------------------------------------------

     CUMULATIVE VOLUMES      L**3       RATES FOR THIS TIME STEP      L**3/T
     ------------------                 ------------------------

           IN:                                      IN:
           ---                                      ---
             STORAGE =    18473030.0000               STORAGE =           0.1211
       CONSTANT HEAD =           0.0000         CONSTANT HEAD =           0.0000
               WELLS =           0.0000                 WELLS =           0.0000
       RIVER LEAKAGE =   114716520.0000         RIVER LEAKAGE =       4.3149E-02
                  ET =           0.0000                    ET =           0.0000
     HEAD DEP BOUNDS =     4007701.0000       HEAD DEP BOUNDS =       5.6816E-02
            RECHARGE =   442750272.0000              RECHARGE =           0.1996
          SWIADDTOCH =           0.0000            SWIADDTOCH =           0.0000

            TOTAL IN =   579947520.0000              TOTAL IN =           0.4207

          OUT:                                     OUT:
          ----                                     ----
             STORAGE =        4968.1035               STORAGE =           0.0000
       CONSTANT HEAD =           0.0000         CONSTANT HEAD =           0.0000
               WELLS =    43488144.0000                 WELLS =           0.3940
       RIVER LEAKAGE =    21630804.0000         RIVER LEAKAGE =           0.0000
                  ET =   166388560.0000                    ET =       2.4237E-03
     HEAD DEP BOUNDS =   348447936.0000       HEAD DEP BOUNDS =       2.4249E-02
            RECHARGE =           0.0000              RECHARGE =           0.0000
          SWIADDTOCH =           0.0000            SWIADDTOCH =           0.0000

           TOTAL OUT =   579960448.0000             TOTAL OUT =           0.4207

            IN - OUT =      -12928.0000              IN - OUT =      -2.2352E-06

 PERCENT DISCREPANCY =          -0.00     PERCENT DISCREPANCY =          -0.00






         TIME SUMMARY AT END OF TIME STEP    7 IN STRESS PERIOD    2
                    SECONDS     MINUTES      HOURS       DAYS        YEARS
                    -----------------------------------------------------------
   TIME STEP LENGTH 1.57680E+07 2.62800E+05  4380.0      182.50     0.49966    
 STRESS PERIOD TIME 1.10376E+08 1.83960E+06  30660.      1277.5      3.4976    
         TOTAL TIME 3.26398E+09 5.43996E+07 9.06660E+05  37778.      103.43    
1
 
 SOLVING FOR HEAD 

 CELL CONVERSIONS FOR ITER.=  2  LAYER=  1  STEP=  8  PERIOD=   2   (ROW,COL)
    DRY( 44, 33)   DRY( 45, 26)   
     4 CALLS TO PCG ROUTINE FOR TIME STEP   8 IN STRESS PERIOD    2
    13 TOTAL ITERATIONS

 MAXIMUM HEAD CHANGE FOR EACH ITERATION (1 INDICATES THE FIRST INNER ITERATION):

    HEAD CHANGE    HEAD CHANGE    HEAD CHANGE    HEAD CHANGE    HEAD CHANGE 
   LAYER,ROW,COL  LAYER,ROW,COL  LAYER,ROW,COL  LAYER,ROW,COL  LAYER,ROW,COL
 ---------------------------------------------------------------------------
  1 -0.4874      0 -0.9436E-01  0 -0.2111E-01  0 -0.1224E-01  0 -0.2699E-02
   (  1, 16, 16)  (  2, 21,  6)  (  2, 37, 11)  (  1, 35,  8)  (  2, 34,  9)
  0 -0.6034E-03  1 -0.3664E-01  0 -0.7332E-02  0 -0.1829E-02  0 -0.5902E-03
   (  2,  7,  8)  (  2, 45, 26)  (  2, 44, 33)  (  2, 13, 17)  (  2, 11, 19)
  1 -0.1396E-02  0 -0.2551E-03  1 -0.9317E-04
   (  2, 18, 10)  (  2, 20,  9)  (  2,  6, 11)

 MAXIMUM RESIDUAL FOR EACH ITERATION (1 INDICATES THE FIRST INNER ITERATION):

    RESIDUAL       RESIDUAL       RESIDUAL       RESIDUAL       RESIDUAL    
   LAYER,ROW,COL  LAYER,ROW,COL  LAYER,ROW,COL  LAYER,ROW,COL  LAYER,ROW,COL
 ---------------------------------------------------------------------------
  1  0.5181E-03  0  0.7653E-04  0  0.2303E-04  0  0.1049E-04  0 -0.2856E-05
   (  2, 17,  6)  (  2, 17,  5)  (  1, 18,  4)  (  1, 18,  5)  (  2, 16,  7)
  0  0.8599E-06  1  0.4467E-04  0  0.1189E-04  0  0.4306E-05  0  0.9452E-06
   (  2, 14,  3)  (  2, 45, 26)  (  2, 44, 27)  (  2, 46, 25)  (  2, 46, 25)
  1  0.1103E-05  0 -0.5605E-06  1 -0.2565E-06
   (  1, 17, 11)  (  2, 22, 11)  (  2, 19, 12)



 OUTPUT CONTROL FOR STRESS PERIOD    2   TIME STEP    8
    SAVE HEAD FOR ALL LAYERS
    SAVE DRAWDOWN FOR ALL LAYERS
    SAVE BUDGET
    PRINT BUDGET
 UBDSV1 SAVING "         STORAGE" ON UNIT   9 AT TIME STEP  8, STRESS PERIOD   2
 UBDSV2 SAVING "   CONSTANT HEAD" ON UNIT   9 AT TIME STEP  8, STRESS PERIOD   2
 UBDSV1 SAVING "FLOW RIGHT FACE " ON UNIT   9 AT TIME STEP  8, STRESS PERIOD   2
 UBDSV1 SAVING "FLOW FRONT FACE " ON UNIT   9 AT TIME STEP  8, STRESS PERIOD   2
 UBDSV1 SAVING "FLOW LOWER FACE " ON UNIT   9 AT TIME STEP  8, STRESS PERIOD   2
 UBDSV4 SAVING "           WELLS" ON UNIT   9 AT TIME STEP  8, STRESS PERIOD   2
 UBDSV4 SAVING "   RIVER LEAKAGE" ON UNIT   9 AT TIME STEP  8, STRESS PERIOD   2
 UBDSV3 SAVING "              ET" ON UNIT   9 AT TIME STEP  8, STRESS PERIOD   2
 UBDSV4 SAVING " HEAD DEP BOUNDS" ON UNIT   9 AT TIME STEP  8, STRESS PERIOD   2
 UBDSV3 SAVING "        RECHARGE" ON UNIT   9 AT TIME STEP  8, STRESS PERIOD   2
 SOLVING FOR ZETA FOR LAYER     1 ZONE     2
     2 CALLS TO PCG ROUTINE FOR TIME STEP   8 IN STRESS PERIOD    2
     4 TOTAL ITERATIONS

 MAXIMUM HEAD CHANGE FOR EACH ITERATION (1 INDICATES THE FIRST INNER ITERATION):

    HEAD CHANGE    HEAD CHANGE    HEAD CHANGE    HEAD CHANGE    HEAD CHANGE 
   LAYER,ROW,COL  LAYER,ROW,COL  LAYER,ROW,COL  LAYER,ROW,COL  LAYER,ROW,COL
 ---------------------------------------------------------------------------
  1   3.747      0  0.2778E-01  0 -0.1296E-03  1  0.7754E-06
   (  1, 18,  4)  (  1, 19,  3)  (  1, 15,  3)  (  1, 13,  2)

 MAXIMUM RESIDUAL FOR EACH ITERATION (1 INDICATES THE FIRST INNER ITERATION):

    RESIDUAL       RESIDUAL       RESIDUAL       RESIDUAL       RESIDUAL    
   LAYER,ROW,COL  LAYER,ROW,COL  LAYER,ROW,COL  LAYER,ROW,COL  LAYER,ROW,COL
 ---------------------------------------------------------------------------
  1 -0.8064E-05  0 -0.3980E-07  0 -0.2551E-09  1 -0.1603E-11
   (  1, 19,  3)  (  1, 12,  3)  (  1, 13,  2)  (  1, 12,  3)


 SOLVING FOR ZETA FOR LAYER     2 ZONE     2
     2 CALLS TO PCG ROUTINE FOR TIME STEP   8 IN STRESS PERIOD    2
     4 TOTAL ITERATIONS

 MAXIMUM HEAD CHANGE FOR EACH ITERATION (1 INDICATES THE FIRST INNER ITERATION):

    HEAD CHANGE    HEAD CHANGE    HEAD CHANGE    HEAD CHANGE    HEAD CHANGE 
   LAYER,ROW,COL  LAYER,ROW,COL  LAYER,ROW,COL  LAYER,ROW,COL  LAYER,ROW,COL
 ---------------------------------------------------------------------------
  1   8.596      0  0.1162      0  0.8777E-03  1  0.3021E-05
   (  1, 18,  6)  (  1, 19,  5)  (  1, 18,  6)  (  1, 19,  5)

 MAXIMUM RESIDUAL FOR EACH ITERATION (1 INDICATES THE FIRST INNER ITERATION):

    RESIDUAL       RESIDUAL       RESIDUAL       RESIDUAL       RESIDUAL    
   LAYER,ROW,COL  LAYER,ROW,COL  LAYER,ROW,COL  LAYER,ROW,COL  LAYER,ROW,COL
 ---------------------------------------------------------------------------
  1 -0.3603E-04  0 -0.2609E-06  0 -0.1216E-08  1 -0.1441E-10
   (  1, 19,  5)  (  1, 18,  6)  (  1, 19,  5)  (  1, 18,  6)


 UBUDSV SAVING "      ZETASRF  1" ON UNIT170 AT TIME STEP  8, STRESS PERIOD    2


                      VOLUMETRIC SWI ZONE BUDGET FOR ENTIRE MODEL
                     AT END OF TIME STEP    8 IN STRESS PERIOD   2
                                      ZONE     1
  -----------------------------------------------------------------------------------

        CUMULATIVE VOLUMES      L**3       RATES FOR THIS TIME STEP      L**3/T
        ------------------                 ------------------------

              IN:                                      IN:
              ---                                      ---
             BOUNDARIES =   535260352.0000            BOUNDARIES =           0.2429
          CONSTANT HEAD =           0.0000         CONSTANT HEAD =           0.0000
            ZONE CHANGE =   103331832.0000           ZONE CHANGE =           0.1338
       ZONE CHG TIP/TOE =     3920268.5000      ZONE CHG TIP/TOE =       3.5515E-03
            ZONE MIXING =           0.0000           ZONE MIXING =           0.0000

               TOTAL IN =   642512448.0000              TOTAL IN =           0.3803

             OUT:                                     OUT:
             ----                                     ----
             BOUNDARIES =   531135872.0000            BOUNDARIES =           0.3953
          CONSTANT HEAD =           0.0000         CONSTANT HEAD =           0.0000
            ZONE CHANGE =    23521400.0000           ZONE CHANGE =       4.3759E-03
       ZONE CHG TIP/TOE =     3682256.5000      ZONE CHG TIP/TOE =       5.6546E-03
            ZONE MIXING =           0.0000           ZONE MIXING =           0.0000

              TOTAL OUT =   558339520.0000             TOTAL OUT =           0.4053

               IN - OUT =    84172928.0000              IN - OUT =      -2.5004E-02

    PERCENT DISCREPANCY =          14.02     PERCENT DISCREPANCY =          -6.37



                      VOLUMETRIC SWI ZONE BUDGET FOR ENTIRE MODEL
                     AT END OF TIME STEP    8 IN STRESS PERIOD   2
                                      ZONE     2
  -----------------------------------------------------------------------------------

        CUMULATIVE VOLUMES      L**3       RATES FOR THIS TIME STEP      L**3/T
        ------------------                 ------------------------

              IN:                                      IN:
              ---                                      ---
             BOUNDARIES =     3312505.5000            BOUNDARIES =       3.7937E-02
          CONSTANT HEAD =           0.0000         CONSTANT HEAD =           0.0000
            ZONE CHANGE =    20328462.0000           ZONE CHANGE =       4.3865E-03
       ZONE CHG TIP/TOE =     3806727.2500      ZONE CHG TIP/TOE =       5.7084E-03
            ZONE MIXING =           0.0000           ZONE MIXING =           0.0000

               TOTAL IN =    27447696.0000              TOTAL IN =       4.8031E-02

             OUT:                                     OUT:
             ----                                     ----
             BOUNDARIES =    27722404.0000            BOUNDARIES =       7.4284E-11
          CONSTANT HEAD =           0.0000         CONSTANT HEAD =           0.0000
            ZONE CHANGE =     5935852.5000           ZONE CHANGE =       3.8468E-02
       ZONE CHG TIP/TOE =     1602189.5000      ZONE CHG TIP/TOE =       3.5515E-03
            ZONE MIXING =           0.0000           ZONE MIXING =           0.0000

              TOTAL OUT =    35260448.0000             TOTAL OUT =       4.2020E-02

               IN - OUT =    -7812752.0000              IN - OUT =       6.0117E-03

    PERCENT DISCREPANCY =         -24.92     PERCENT DISCREPANCY =          13.35


 HEAD WILL BE SAVED ON UNIT   37 AT END OF TIME STEP    8, STRESS PERIOD    2

 DRAWDOWN WILL BE SAVED ON UNIT   38 AT END OF TIME STEP    8, STRESS PERIOD    2
1
  VOLUMETRIC BUDGET FOR ENTIRE MODEL AT END OF TIME STEP    8, STRESS PERIOD   2
  ------------------------------------------------------------------------------

     CUMULATIVE VOLUMES      L**3       RATES FOR THIS TIME STEP      L**3/T
     ------------------                 ------------------------

           IN:                                      IN:
           ---                                      ---
             STORAGE =    20277254.0000               STORAGE =           0.1144
       CONSTANT HEAD =           0.0000         CONSTANT HEAD =           0.0000
               WELLS =           0.0000                 WELLS =           0.0000
       RIVER LEAKAGE =   115401344.0000         RIVER LEAKAGE =       4.3431E-02
                  ET =           0.0000                    ET =           0.0000
     HEAD DEP BOUNDS =     4966101.5000       HEAD DEP BOUNDS =       6.0781E-02
            RECHARGE =   445891264.0000              RECHARGE =           0.1992
          SWIADDTOCH =           0.0000            SWIADDTOCH =           0.0000

            TOTAL IN =   586535936.0000              TOTAL IN =           0.4178

          OUT:                                     OUT:
          ----                                     ----
             STORAGE =        4968.1035               STORAGE =           0.0000
       CONSTANT HEAD =           0.0000         CONSTANT HEAD =           0.0000
               WELLS =    49700736.0000                 WELLS =           0.3940
       RIVER LEAKAGE =    21630804.0000         RIVER LEAKAGE =           0.0000
                  ET =   166407888.0000                    ET =       1.2256E-03
     HEAD DEP BOUNDS =   348804480.0000       HEAD DEP BOUNDS =       2.2612E-02
            RECHARGE =           0.0000              RECHARGE =           0.0000
          SWIADDTOCH =           0.0000            SWIADDTOCH =           0.0000

           TOTAL OUT =   586548864.0000             TOTAL OUT =           0.4178

            IN - OUT =      -12928.0000              IN - OUT =      -1.0431E-06

 PERCENT DISCREPANCY =          -0.00     PERCENT DISCREPANCY =          -0.00






         TIME SUMMARY AT END OF TIME STEP    8 IN STRESS PERIOD    2
                    SECONDS     MINUTES      HOURS       DAYS        YEARS
                    -----------------------------------------------------------
   TIME STEP LENGTH 1.57680E+07 2.62800E+05  4380.0      182.50     0.49966    
 STRESS PERIOD TIME 1.26144E+08 2.10240E+06  35040.      1460.0      3.9973    
         TOTAL TIME 3.27974E+09 5.46624E+07 9.11040E+05  37960.      103.93    
1
 
 SOLVING FOR HEAD 

 CELL CONVERSIONS FOR ITER.=  2  LAYER=  1  STEP=  9  PERIOD=   2   (ROW,COL)
    DRY( 38, 34)   

 CELL CONVERSIONS FOR ITER.=  5  LAYER=  1  STEP=  9  PERIOD=   2   (ROW,COL)
    DRY( 45, 32)   

 CELL CONVERSIONS FOR ITER.=  6  LAYER=  1  STEP=  9  PERIOD=   2   (ROW,COL)
    DRY( 43, 32)   
     7 CALLS TO PCG ROUTINE FOR TIME STEP   9 IN STRESS PERIOD    2
    25 TOTAL ITERATIONS

 MAXIMUM HEAD CHANGE FOR EACH ITERATION (1 INDICATES THE FIRST INNER ITERATION):

    HEAD CHANGE    HEAD CHANGE    HEAD CHANGE    HEAD CHANGE    HEAD CHANGE 
   LAYER,ROW,COL  LAYER,ROW,COL  LAYER,ROW,COL  LAYER,ROW,COL  LAYER,ROW,COL
 ---------------------------------------------------------------------------
  1 -0.4224      0 -0.8680E-01  0 -0.1829E-01  0 -0.1077E-01  0 -0.3115E-02
   (  1, 16, 17)  (  2, 16,  2)  (  2, 37, 11)  (  1, 35,  8)  (  2, 34,  9)
  0 -0.7967E-03  1 -0.5511E-01  0  0.1784E-01  0  0.3605E-02  0  0.8945E-03
   (  1, 35,  8)  (  2, 38, 34)  (  2, 18, 11)  (  2, 38, 34)  (  2, 38, 34)
  1 -0.9354E-02  0  0.1029E-02  0  0.2500E-03  1 -0.2429E-02  0  0.3648E-03
   (  1, 45, 32)  (  2, 18, 11)  (  2, 18, 10)  (  1, 45, 32)  (  2, 45, 32)
  1 -0.2288      0 -0.2541E-01  0 -0.5759E-02  0 -0.1214E-02  0 -0.2613E-03
   (  2, 45, 32)  (  2, 44, 34)  (  2, 46, 31)  (  2, 52, 27)  (  2, 52, 27)
  1 -0.4341E-01  0 -0.5014E-02  0 -0.1197E-02  0 -0.2316E-03  1  0.1236E-03
   (  2, 43, 32)  (  2, 44, 30)  (  2, 42, 33)  (  2, 39, 37)  (  1, 44, 31)

 MAXIMUM RESIDUAL FOR EACH ITERATION (1 INDICATES THE FIRST INNER ITERATION):

    RESIDUAL       RESIDUAL       RESIDUAL       RESIDUAL       RESIDUAL    
   LAYER,ROW,COL  LAYER,ROW,COL  LAYER,ROW,COL  LAYER,ROW,COL  LAYER,ROW,COL
 ---------------------------------------------------------------------------
  1  0.5114E-03  0  0.9309E-04  0  0.2203E-04  0  0.9351E-05  0 -0.2814E-05
   (  2, 16,  6)  (  2, 16,  5)  (  1, 18,  5)  (  1, 17,  5)  (  2, 15,  7)
  0 -0.1002E-05  1  0.2026E-02  0  0.2194E-03  0  0.4344E-04  0  0.1103E-04
   (  1, 16,  5)  (  1, 45, 32)  (  1, 45, 32)  (  1, 45, 32)  (  1, 45, 32)
  1  0.1015E-04  0  0.1158E-05  0  0.1532E-06  1 -0.1467E-04  0 -0.2869E-05
   (  1, 45, 32)  (  1, 45, 32)  (  2, 17, 10)  (  2, 45, 32)  (  2, 45, 32)
  1  0.1253E-03  0  0.4348E-04  0  0.5486E-05  0  0.2310E-05  0  0.8163E-06
   (  2, 45, 32)  (  2, 44, 33)  (  2, 44, 33)  (  2, 43, 34)  (  2, 43, 34)
  1  0.2992E-04  0  0.9546E-05  0  0.1802E-05  0  0.5830E-06  1 -0.5097E-06
   (  2, 43, 32)  (  2, 44, 31)  (  2, 42, 33)  (  2, 45, 30)  (  2, 44, 32)



 OUTPUT CONTROL FOR STRESS PERIOD    2   TIME STEP    9
    SAVE HEAD FOR ALL LAYERS
    SAVE DRAWDOWN FOR ALL LAYERS
    SAVE BUDGET
    PRINT BUDGET
 UBDSV1 SAVING "         STORAGE" ON UNIT   9 AT TIME STEP  9, STRESS PERIOD   2
 UBDSV2 SAVING "   CONSTANT HEAD" ON UNIT   9 AT TIME STEP  9, STRESS PERIOD   2
 UBDSV1 SAVING "FLOW RIGHT FACE " ON UNIT   9 AT TIME STEP  9, STRESS PERIOD   2
 UBDSV1 SAVING "FLOW FRONT FACE " ON UNIT   9 AT TIME STEP  9, STRESS PERIOD   2
 UBDSV1 SAVING "FLOW LOWER FACE " ON UNIT   9 AT TIME STEP  9, STRESS PERIOD   2
 UBDSV4 SAVING "           WELLS" ON UNIT   9 AT TIME STEP  9, STRESS PERIOD   2
 UBDSV4 SAVING "   RIVER LEAKAGE" ON UNIT   9 AT TIME STEP  9, STRESS PERIOD   2
 UBDSV3 SAVING "              ET" ON UNIT   9 AT TIME STEP  9, STRESS PERIOD   2
 UBDSV4 SAVING " HEAD DEP BOUNDS" ON UNIT   9 AT TIME STEP  9, STRESS PERIOD   2
 UBDSV3 SAVING "        RECHARGE" ON UNIT   9 AT TIME STEP  9, STRESS PERIOD   2
 SOLVING FOR ZETA FOR LAYER     1 ZONE     2
     2 CALLS TO PCG ROUTINE FOR TIME STEP   9 IN STRESS PERIOD    2
     4 TOTAL ITERATIONS

 MAXIMUM HEAD CHANGE FOR EACH ITERATION (1 INDICATES THE FIRST INNER ITERATION):

    HEAD CHANGE    HEAD CHANGE    HEAD CHANGE    HEAD CHANGE    HEAD CHANGE 
   LAYER,ROW,COL  LAYER,ROW,COL  LAYER,ROW,COL  LAYER,ROW,COL  LAYER,ROW,COL
 ---------------------------------------------------------------------------
  1   3.889      0  0.3328E-01  0 -0.1633E-03  1  0.5043E-06
   (  1, 18,  4)  (  1, 19,  3)  (  1, 15,  3)  (  1, 11,  3)

 MAXIMUM RESIDUAL FOR EACH ITERATION (1 INDICATES THE FIRST INNER ITERATION):

    RESIDUAL       RESIDUAL       RESIDUAL       RESIDUAL       RESIDUAL    
   LAYER,ROW,COL  LAYER,ROW,COL  LAYER,ROW,COL  LAYER,ROW,COL  LAYER,ROW,COL
 ---------------------------------------------------------------------------
  1 -0.9830E-05  0  0.4218E-07  0  0.1675E-09  1  0.1054E-11
   (  1, 19,  3)  (  1, 15,  3)  (  1, 12,  2)  (  1, 13,  2)


 SOLVING FOR ZETA FOR LAYER     2 ZONE     2
     2 CALLS TO PCG ROUTINE FOR TIME STEP   9 IN STRESS PERIOD    2
     5 TOTAL ITERATIONS

 MAXIMUM HEAD CHANGE FOR EACH ITERATION (1 INDICATES THE FIRST INNER ITERATION):

    HEAD CHANGE    HEAD CHANGE    HEAD CHANGE    HEAD CHANGE    HEAD CHANGE 
   LAYER,ROW,COL  LAYER,ROW,COL  LAYER,ROW,COL  LAYER,ROW,COL  LAYER,ROW,COL
 ---------------------------------------------------------------------------
  1   14.31      0  0.1074      0  0.1702E-02  0  0.1652E-04  1 -0.4413E-06
   (  1, 18,  6)  (  1, 21,  5)  (  1, 15,  5)  (  1, 16,  4)  (  1, 20,  6)

 MAXIMUM RESIDUAL FOR EACH ITERATION (1 INDICATES THE FIRST INNER ITERATION):

    RESIDUAL       RESIDUAL       RESIDUAL       RESIDUAL       RESIDUAL    
   LAYER,ROW,COL  LAYER,ROW,COL  LAYER,ROW,COL  LAYER,ROW,COL  LAYER,ROW,COL
 ---------------------------------------------------------------------------
  1 -0.3791E-04  0 -0.6136E-06  0 -0.5957E-08  0 -0.6894E-10  1  0.2246E-11
   (  1, 21,  5)  (  1, 15,  5)  (  1, 16,  4)  (  1, 15,  5)  (  1, 21,  5)


 UBUDSV SAVING "      ZETASRF  1" ON UNIT170 AT TIME STEP  9, STRESS PERIOD    2


                      VOLUMETRIC SWI ZONE BUDGET FOR ENTIRE MODEL
                     AT END OF TIME STEP    9 IN STRESS PERIOD   2
                                      ZONE     1
  -----------------------------------------------------------------------------------

        CUMULATIVE VOLUMES      L**3       RATES FOR THIS TIME STEP      L**3/T
        ------------------                 ------------------------

              IN:                                      IN:
              ---                                      ---
             BOUNDARIES =   539100096.0000            BOUNDARIES =           0.2435
          CONSTANT HEAD =           0.0000         CONSTANT HEAD =           0.0000
            ZONE CHANGE =   105477680.0000           ZONE CHANGE =           0.1361
       ZONE CHG TIP/TOE =     3928733.7500      ZONE CHG TIP/TOE =       5.3686E-04
            ZONE MIXING =           0.0000           ZONE MIXING =           0.0000

               TOTAL IN =   648506496.0000              TOTAL IN =           0.3801

             OUT:                                     OUT:
             ----                                     ----
             BOUNDARIES =   537341312.0000            BOUNDARIES =           0.3935
          CONSTANT HEAD =           0.0000         CONSTANT HEAD =           0.0000
            ZONE CHANGE =    23581088.0000           ZONE CHANGE =       3.7854E-03
       ZONE CHG TIP/TOE =     3718386.2500      ZONE CHG TIP/TOE =       2.2913E-03
            ZONE MIXING =           0.0000           ZONE MIXING =           0.0000

              TOTAL OUT =   564640768.0000             TOTAL OUT =           0.3996

               IN - OUT =    83865728.0000              IN - OUT =      -1.9482E-02

    PERCENT DISCREPANCY =          13.83     PERCENT DISCREPANCY =          -5.00



                      VOLUMETRIC SWI ZONE BUDGET FOR ENTIRE MODEL
                     AT END OF TIME STEP    9 IN STRESS PERIOD   2
                                      ZONE     2
  -----------------------------------------------------------------------------------

        CUMULATIVE VOLUMES      L**3       RATES FOR THIS TIME STEP      L**3/T
        ------------------                 ------------------------

              IN:                                      IN:
              ---                                      ---
             BOUNDARIES =     3939620.7500            BOUNDARIES =       3.9771E-02
          CONSTANT HEAD =           0.0000         CONSTANT HEAD =           0.0000
            ZONE CHANGE =    20388278.0000           ZONE CHANGE =       3.7935E-03
       ZONE CHG TIP/TOE =     3861451.0000      ZONE CHG TIP/TOE =       3.4706E-03
            ZONE MIXING =           0.0000           ZONE MIXING =           0.0000

               TOTAL IN =    28189348.0000              TOTAL IN =       4.7035E-02

             OUT:                                     OUT:
             ----                                     ----
             BOUNDARIES =    27722404.0000            BOUNDARIES =       4.9635E-11
          CONSTANT HEAD =           0.0000         CONSTANT HEAD =           0.0000
            ZONE CHANGE =     6650447.5000           ZONE CHANGE =       4.5319E-02
       ZONE CHG TIP/TOE =     1610654.7500      ZONE CHG TIP/TOE =       5.3686E-04
            ZONE MIXING =           0.0000           ZONE MIXING =           0.0000

              TOTAL OUT =    35983504.0000             TOTAL OUT =       4.5856E-02

               IN - OUT =    -7794156.0000              IN - OUT =       1.1793E-03

    PERCENT DISCREPANCY =         -24.29     PERCENT DISCREPANCY =           2.54


 HEAD WILL BE SAVED ON UNIT   37 AT END OF TIME STEP    9, STRESS PERIOD    2

 DRAWDOWN WILL BE SAVED ON UNIT   38 AT END OF TIME STEP    9, STRESS PERIOD    2
1
  VOLUMETRIC BUDGET FOR ENTIRE MODEL AT END OF TIME STEP    9, STRESS PERIOD   2
  ------------------------------------------------------------------------------

     CUMULATIVE VOLUMES      L**3       RATES FOR THIS TIME STEP      L**3/T
     ------------------                 ------------------------

           IN:                                      IN:
           ---                                      ---
             STORAGE =    22015810.0000               STORAGE =           0.1103
       CONSTANT HEAD =           0.0000         CONSTANT HEAD =           0.0000
               WELLS =           0.0000                 WELLS =           0.0000
       RIVER LEAKAGE =   116073448.0000         RIVER LEAKAGE =       4.2625E-02
                  ET =           0.0000                    ET =           0.0000
     HEAD DEP BOUNDS =     5977859.0000       HEAD DEP BOUNDS =       6.4165E-02
            RECHARGE =   449023264.0000              RECHARGE =           0.1986
          SWIADDTOCH =           0.0000            SWIADDTOCH =           0.0000

            TOTAL IN =   593090368.0000              TOTAL IN =           0.4157

          OUT:                                     OUT:
          ----                                     ----
             STORAGE =        4968.7476               STORAGE =       4.0855E-08
       CONSTANT HEAD =           0.0000         CONSTANT HEAD =           0.0000
               WELLS =    55913328.0000                 WELLS =           0.3940
       RIVER LEAKAGE =    21630804.0000         RIVER LEAKAGE =           0.0000
                  ET =   166413472.0000                    ET =       3.5397E-04
     HEAD DEP BOUNDS =   349140736.0000       HEAD DEP BOUNDS =       2.1326E-02
            RECHARGE =           0.0000              RECHARGE =           0.0000
          SWIADDTOCH =           0.0000            SWIADDTOCH =           0.0000

           TOTAL OUT =   593103296.0000             TOTAL OUT =           0.4157

            IN - OUT =      -12928.0000              IN - OUT =      -1.3113E-06

 PERCENT DISCREPANCY =          -0.00     PERCENT DISCREPANCY =          -0.00






         TIME SUMMARY AT END OF TIME STEP    9 IN STRESS PERIOD    2
                    SECONDS     MINUTES      HOURS       DAYS        YEARS
                    -----------------------------------------------------------
   TIME STEP LENGTH 1.57680E+07 2.62800E+05  4380.0      182.50     0.49966    
 STRESS PERIOD TIME 1.41912E+08 2.36520E+06  39420.      1642.5      4.4969    
         TOTAL TIME 3.29551E+09 5.49252E+07 9.15420E+05  38143.      104.43    
1
 
 SOLVING FOR HEAD 
     4 CALLS TO PCG ROUTINE FOR TIME STEP  10 IN STRESS PERIOD    2
    13 TOTAL ITERATIONS

 MAXIMUM HEAD CHANGE FOR EACH ITERATION (1 INDICATES THE FIRST INNER ITERATION):

    HEAD CHANGE    HEAD CHANGE    HEAD CHANGE    HEAD CHANGE    HEAD CHANGE 
   LAYER,ROW,COL  LAYER,ROW,COL  LAYER,ROW,COL  LAYER,ROW,COL  LAYER,ROW,COL
 ---------------------------------------------------------------------------
  1 -0.3746      0  0.1002      0 -0.1985E-01  0 -0.9247E-02  0 -0.2854E-02
   (  1, 15, 18)  (  1, 18,  6)  (  2, 18,  5)  (  1, 35,  8)  (  2, 34,  9)
  0 -0.8682E-03  1 -0.3230E-01  0 -0.5142E-02  0 -0.2055E-02  0 -0.4838E-03
   (  1, 35,  8)  (  1, 31, 13)  (  2, 14, 13)  (  2, 30, 12)  (  2, 11, 19)
  1 -0.1156E-02  0 -0.2209E-03  1 -0.5278E-04
   (  2, 18, 10)  (  2, 20,  8)  (  2,  6, 12)

 MAXIMUM RESIDUAL FOR EACH ITERATION (1 INDICATES THE FIRST INNER ITERATION):

    RESIDUAL       RESIDUAL       RESIDUAL       RESIDUAL       RESIDUAL    
   LAYER,ROW,COL  LAYER,ROW,COL  LAYER,ROW,COL  LAYER,ROW,COL  LAYER,ROW,COL
 ---------------------------------------------------------------------------
  1  0.8215E-03  0 -0.1045E-03  0  0.3815E-04  0  0.1111E-04  0  0.2858E-05
   (  2, 19,  5)  (  2, 27,  3)  (  1, 28,  3)  (  1, 28,  3)  (  1, 20,  5)
  0  0.1043E-05  1 -0.4279E-04  0  0.1371E-04  0  0.3575E-05  0 -0.1273E-05
   (  1, 28,  4)  (  2, 31, 13)  (  2, 31, 12)  (  2, 30, 13)  (  2, 32, 12)
  1  0.8421E-06  0 -0.4171E-06  1 -0.2035E-06
   (  1, 17, 11)  (  2, 22, 11)  (  2, 19, 12)



 OUTPUT CONTROL FOR STRESS PERIOD    2   TIME STEP   10
    SAVE HEAD FOR ALL LAYERS
    SAVE DRAWDOWN FOR ALL LAYERS
    SAVE BUDGET
    PRINT BUDGET
 UBDSV1 SAVING "         STORAGE" ON UNIT   9 AT TIME STEP 10, STRESS PERIOD   2
 UBDSV2 SAVING "   CONSTANT HEAD" ON UNIT   9 AT TIME STEP 10, STRESS PERIOD   2
 UBDSV1 SAVING "FLOW RIGHT FACE " ON UNIT   9 AT TIME STEP 10, STRESS PERIOD   2
 UBDSV1 SAVING "FLOW FRONT FACE " ON UNIT   9 AT TIME STEP 10, STRESS PERIOD   2
 UBDSV1 SAVING "FLOW LOWER FACE " ON UNIT   9 AT TIME STEP 10, STRESS PERIOD   2
 UBDSV4 SAVING "           WELLS" ON UNIT   9 AT TIME STEP 10, STRESS PERIOD   2
 UBDSV4 SAVING "   RIVER LEAKAGE" ON UNIT   9 AT TIME STEP 10, STRESS PERIOD   2
 UBDSV3 SAVING "              ET" ON UNIT   9 AT TIME STEP 10, STRESS PERIOD   2
 UBDSV4 SAVING " HEAD DEP BOUNDS" ON UNIT   9 AT TIME STEP 10, STRESS PERIOD   2
 UBDSV3 SAVING "        RECHARGE" ON UNIT   9 AT TIME STEP 10, STRESS PERIOD   2
 SOLVING FOR ZETA FOR LAYER     1 ZONE     2
     2 CALLS TO PCG ROUTINE FOR TIME STEP  10 IN STRESS PERIOD    2
     4 TOTAL ITERATIONS

 MAXIMUM HEAD CHANGE FOR EACH ITERATION (1 INDICATES THE FIRST INNER ITERATION):

    HEAD CHANGE    HEAD CHANGE    HEAD CHANGE    HEAD CHANGE    HEAD CHANGE 
   LAYER,ROW,COL  LAYER,ROW,COL  LAYER,ROW,COL  LAYER,ROW,COL  LAYER,ROW,COL
 ---------------------------------------------------------------------------
  1   3.787      0  0.3810E-01  0  0.2164E-03  1  0.1931E-05
   (  1, 18,  4)  (  1, 19,  3)  (  1, 18,  4)  (  1, 27,  4)

 MAXIMUM RESIDUAL FOR EACH ITERATION (1 INDICATES THE FIRST INNER ITERATION):

    RESIDUAL       RESIDUAL       RESIDUAL       RESIDUAL       RESIDUAL    
   LAYER,ROW,COL  LAYER,ROW,COL  LAYER,ROW,COL  LAYER,ROW,COL  LAYER,ROW,COL
 ---------------------------------------------------------------------------
  1 -0.1128E-04  0 -0.6545E-07  0 -0.5446E-09  1 -0.2922E-11
   (  1, 19,  3)  (  1, 18,  4)  (  1, 27,  4)  (  1, 28,  3)


 SOLVING FOR ZETA FOR LAYER     2 ZONE     2
     2 CALLS TO PCG ROUTINE FOR TIME STEP  10 IN STRESS PERIOD    2
     5 TOTAL ITERATIONS

 MAXIMUM HEAD CHANGE FOR EACH ITERATION (1 INDICATES THE FIRST INNER ITERATION):

    HEAD CHANGE    HEAD CHANGE    HEAD CHANGE    HEAD CHANGE    HEAD CHANGE 
   LAYER,ROW,COL  LAYER,ROW,COL  LAYER,ROW,COL  LAYER,ROW,COL  LAYER,ROW,COL
 ---------------------------------------------------------------------------
  1   10.63      0  0.1853      0 -0.1274E-02  0 -0.1188E-04  1 -0.2226E-06
   (  1, 17,  6)  (  1, 19,  5)  (  1, 21,  7)  (  1, 17,  5)  (  1, 13,  5)

 MAXIMUM RESIDUAL FOR EACH ITERATION (1 INDICATES THE FIRST INNER ITERATION):

    RESIDUAL       RESIDUAL       RESIDUAL       RESIDUAL       RESIDUAL    
   LAYER,ROW,COL  LAYER,ROW,COL  LAYER,ROW,COL  LAYER,ROW,COL  LAYER,ROW,COL
 ---------------------------------------------------------------------------
  1 -0.5720E-04  0  0.3827E-06  0  0.4548E-08  0 -0.4198E-10  1  0.1092E-11
   (  1, 18,  5)  (  1, 21,  7)  (  1, 17,  5)  (  1, 19,  6)  (  1, 14,  4)


 UBUDSV SAVING "      ZETASRF  1" ON UNIT170 AT TIME STEP 10, STRESS PERIOD    2


                      VOLUMETRIC SWI ZONE BUDGET FOR ENTIRE MODEL
                     AT END OF TIME STEP   10 IN STRESS PERIOD   2
                                      ZONE     1
  -----------------------------------------------------------------------------------

        CUMULATIVE VOLUMES      L**3       RATES FOR THIS TIME STEP      L**3/T
        ------------------                 ------------------------

              IN:                                      IN:
              ---                                      ---
             BOUNDARIES =   542966528.0000            BOUNDARIES =           0.2452
          CONSTANT HEAD =           0.0000         CONSTANT HEAD =           0.0000
            ZONE CHANGE =   107514408.0000           ZONE CHANGE =           0.1292
       ZONE CHG TIP/TOE =     3971825.5000      ZONE CHG TIP/TOE =       2.7329E-03
            ZONE MIXING =           0.0000           ZONE MIXING =           0.0000

               TOTAL IN =   654452736.0000              TOTAL IN =           0.3771

             OUT:                                     OUT:
             ----                                     ----
             BOUNDARIES =   543525504.0000            BOUNDARIES =           0.3922
          CONSTANT HEAD =           0.0000         CONSTANT HEAD =           0.0000
            ZONE CHANGE =    23641678.0000           ZONE CHANGE =       3.8426E-03
       ZONE CHG TIP/TOE =     3777706.2500      ZONE CHG TIP/TOE =       3.7621E-03
            ZONE MIXING =           0.0000           ZONE MIXING =           0.0000

              TOTAL OUT =   570944896.0000             TOTAL OUT =           0.3998

               IN - OUT =    83507840.0000              IN - OUT =      -2.2694E-02

    PERCENT DISCREPANCY =          13.63     PERCENT DISCREPANCY =          -5.84



                      VOLUMETRIC SWI ZONE BUDGET FOR ENTIRE MODEL
                     AT END OF TIME STEP   10 IN STRESS PERIOD   2
                                      ZONE     2
  -----------------------------------------------------------------------------------

        CUMULATIVE VOLUMES      L**3       RATES FOR THIS TIME STEP      L**3/T
        ------------------                 ------------------------

              IN:                                      IN:
              ---                                      ---
             BOUNDARIES =     4581660.0000            BOUNDARIES =       4.0718E-02
          CONSTANT HEAD =           0.0000         CONSTANT HEAD =           0.0000
            ZONE CHANGE =    20445862.0000           ZONE CHANGE =       3.6519E-03
       ZONE CHG TIP/TOE =     3941050.5000      ZONE CHG TIP/TOE =       5.0482E-03
            ZONE MIXING =           0.0000           ZONE MIXING =           0.0000

               TOTAL IN =    28968572.0000              TOTAL IN =       4.9418E-02

             OUT:                                     OUT:
             ----                                     ----
             BOUNDARIES =    27722404.0000            BOUNDARIES =       5.0763E-11
          CONSTANT HEAD =           0.0000         CONSTANT HEAD =           0.0000
            ZONE CHANGE =     7310007.0000           ZONE CHANGE =       4.1829E-02
       ZONE CHG TIP/TOE =     1650654.7500      ZONE CHG TIP/TOE =       2.5368E-03
            ZONE MIXING =           0.0000           ZONE MIXING =           0.0000

              TOTAL OUT =    36683064.0000             TOTAL OUT =       4.4366E-02

               IN - OUT =    -7714492.0000              IN - OUT =       5.0522E-03

    PERCENT DISCREPANCY =         -23.50     PERCENT DISCREPANCY =          10.77


 HEAD WILL BE SAVED ON UNIT   37 AT END OF TIME STEP   10, STRESS PERIOD    2

 DRAWDOWN WILL BE SAVED ON UNIT   38 AT END OF TIME STEP   10, STRESS PERIOD    2
1
  VOLUMETRIC BUDGET FOR ENTIRE MODEL AT END OF TIME STEP   10, STRESS PERIOD   2
  ------------------------------------------------------------------------------

     CUMULATIVE VOLUMES      L**3       RATES FOR THIS TIME STEP      L**3/T
     ------------------                 ------------------------

           IN:                                      IN:
           ---                                      ---
             STORAGE =    23691530.0000               STORAGE =           0.1063
       CONSTANT HEAD =           0.0000         CONSTANT HEAD =           0.0000
               WELLS =           0.0000                 WELLS =           0.0000
       RIVER LEAKAGE =   116748432.0000         RIVER LEAKAGE =       4.2807E-02
                  ET =           0.0000                    ET =           0.0000
     HEAD DEP BOUNDS =     7024527.5000       HEAD DEP BOUNDS =       6.6379E-02
            RECHARGE =   452155264.0000              RECHARGE =           0.1986
          SWIADDTOCH =           0.0000            SWIADDTOCH =           0.0000

            TOTAL IN =   599619776.0000              TOTAL IN =           0.4141

          OUT:                                     OUT:
          ----                                     ----
             STORAGE =        4981.6587               STORAGE =       8.1881E-07
       CONSTANT HEAD =           0.0000         CONSTANT HEAD =           0.0000
               WELLS =    62125920.0000                 WELLS =           0.3940
       RIVER LEAKAGE =    21630804.0000         RIVER LEAKAGE =           0.0000
                  ET =   166413648.0000                    ET =       1.1372E-05
     HEAD DEP BOUNDS =   349457344.0000       HEAD DEP BOUNDS =       2.0079E-02
            RECHARGE =           0.0000              RECHARGE =           0.0000
          SWIADDTOCH =           0.0000            SWIADDTOCH =           0.0000

           TOTAL OUT =   599632704.0000             TOTAL OUT =           0.4141

            IN - OUT =      -12928.0000              IN - OUT =      -4.7684E-07

 PERCENT DISCREPANCY =          -0.00     PERCENT DISCREPANCY =          -0.00






         TIME SUMMARY AT END OF TIME STEP   10 IN STRESS PERIOD    2
                    SECONDS     MINUTES      HOURS       DAYS        YEARS
                    -----------------------------------------------------------
   TIME STEP LENGTH 1.57680E+07 2.62800E+05  4380.0      182.50     0.49966    
 STRESS PERIOD TIME 1.57680E+08 2.62800E+06  43800.      1825.0      4.9966    
         TOTAL TIME 3.31128E+09 5.51880E+07 9.19800E+05  38325.      104.93    
1
 
 SOLVING FOR HEAD 

 CELL CONVERSIONS FOR ITER.=  2  LAYER=  1  STEP= 11  PERIOD=   2   (ROW,COL)
    DRY( 39, 36)   
     4 CALLS TO PCG ROUTINE FOR TIME STEP  11 IN STRESS PERIOD    2
    13 TOTAL ITERATIONS

 MAXIMUM HEAD CHANGE FOR EACH ITERATION (1 INDICATES THE FIRST INNER ITERATION):

    HEAD CHANGE    HEAD CHANGE    HEAD CHANGE    HEAD CHANGE    HEAD CHANGE 
   LAYER,ROW,COL  LAYER,ROW,COL  LAYER,ROW,COL  LAYER,ROW,COL  LAYER,ROW,COL
 ---------------------------------------------------------------------------
  1 -0.3414      0  0.9567E-01  0 -0.1887E-01  0 -0.7408E-02  0 -0.2608E-02
   (  1, 14, 19)  (  2, 19,  6)  (  2, 17,  5)  (  1, 35,  8)  (  2, 34,  9)
  0 -0.7993E-03  1 -0.3869E-01  0 -0.9860E-02  0  0.2385E-02  0 -0.5433E-03
   (  1, 35,  8)  (  1, 34, 12)  (  2, 39, 36)  (  2, 37, 11)  (  2, 38, 37)
  1 -0.1018E-02  0 -0.1935E-03  1 -0.7047E-04
   (  2, 18, 10)  (  2, 20,  9)  (  2,  5, 11)

 MAXIMUM RESIDUAL FOR EACH ITERATION (1 INDICATES THE FIRST INNER ITERATION):

    RESIDUAL       RESIDUAL       RESIDUAL       RESIDUAL       RESIDUAL    
   LAYER,ROW,COL  LAYER,ROW,COL  LAYER,ROW,COL  LAYER,ROW,COL  LAYER,ROW,COL
 ---------------------------------------------------------------------------
  1 -0.6454E-03  0  0.1077E-03  0  0.2746E-04  0  0.9596E-05  0  0.3020E-05
   (  2, 18,  6)  (  2, 15,  5)  (  1, 16,  4)  (  1, 16,  6)  (  1, 15,  7)
  0 -0.9150E-06  1 -0.4742E-04  0  0.1600E-04  0  0.3977E-05  0 -0.1346E-05
   (  1, 15,  5)  (  2, 34, 12)  (  2, 33, 12)  (  2, 40, 35)  (  2, 35, 11)
  1  0.7642E-06  0 -0.3926E-06  1 -0.1787E-06
   (  1, 17, 11)  (  2, 22, 11)  (  2, 19, 12)



 OUTPUT CONTROL FOR STRESS PERIOD    2   TIME STEP   11
    SAVE HEAD FOR ALL LAYERS
    SAVE DRAWDOWN FOR ALL LAYERS
    SAVE BUDGET
    PRINT BUDGET
 UBDSV1 SAVING "         STORAGE" ON UNIT   9 AT TIME STEP 11, STRESS PERIOD   2
 UBDSV2 SAVING "   CONSTANT HEAD" ON UNIT   9 AT TIME STEP 11, STRESS PERIOD   2
 UBDSV1 SAVING "FLOW RIGHT FACE " ON UNIT   9 AT TIME STEP 11, STRESS PERIOD   2
 UBDSV1 SAVING "FLOW FRONT FACE " ON UNIT   9 AT TIME STEP 11, STRESS PERIOD   2
 UBDSV1 SAVING "FLOW LOWER FACE " ON UNIT   9 AT TIME STEP 11, STRESS PERIOD   2
 UBDSV4 SAVING "           WELLS" ON UNIT   9 AT TIME STEP 11, STRESS PERIOD   2
 UBDSV4 SAVING "   RIVER LEAKAGE" ON UNIT   9 AT TIME STEP 11, STRESS PERIOD   2
 UBDSV3 SAVING "              ET" ON UNIT   9 AT TIME STEP 11, STRESS PERIOD   2
 UBDSV4 SAVING " HEAD DEP BOUNDS" ON UNIT   9 AT TIME STEP 11, STRESS PERIOD   2
 UBDSV3 SAVING "        RECHARGE" ON UNIT   9 AT TIME STEP 11, STRESS PERIOD   2
 SOLVING FOR ZETA FOR LAYER     1 ZONE     2
     2 CALLS TO PCG ROUTINE FOR TIME STEP  11 IN STRESS PERIOD    2
     4 TOTAL ITERATIONS

 MAXIMUM HEAD CHANGE FOR EACH ITERATION (1 INDICATES THE FIRST INNER ITERATION):

    HEAD CHANGE    HEAD CHANGE    HEAD CHANGE    HEAD CHANGE    HEAD CHANGE 
   LAYER,ROW,COL  LAYER,ROW,COL  LAYER,ROW,COL  LAYER,ROW,COL  LAYER,ROW,COL
 ---------------------------------------------------------------------------
  1   3.918      0  0.4440E-01  0  0.2829E-03  1  0.2372E-05
   (  1, 18,  4)  (  1, 19,  3)  (  1, 18,  4)  (  1, 27,  4)

 MAXIMUM RESIDUAL FOR EACH ITERATION (1 INDICATES THE FIRST INNER ITERATION):

    RESIDUAL       RESIDUAL       RESIDUAL       RESIDUAL       RESIDUAL    
   LAYER,ROW,COL  LAYER,ROW,COL  LAYER,ROW,COL  LAYER,ROW,COL  LAYER,ROW,COL
 ---------------------------------------------------------------------------
  1 -0.1340E-04  0 -0.8722E-07  0 -0.6677E-09  1 -0.4269E-11
   (  1, 19,  3)  (  1, 18,  4)  (  1, 27,  4)  (  1, 18,  4)


 SOLVING FOR ZETA FOR LAYER     2 ZONE     2
     2 CALLS TO PCG ROUTINE FOR TIME STEP  11 IN STRESS PERIOD    2
     5 TOTAL ITERATIONS

 MAXIMUM HEAD CHANGE FOR EACH ITERATION (1 INDICATES THE FIRST INNER ITERATION):

    HEAD CHANGE    HEAD CHANGE    HEAD CHANGE    HEAD CHANGE    HEAD CHANGE 
   LAYER,ROW,COL  LAYER,ROW,COL  LAYER,ROW,COL  LAYER,ROW,COL  LAYER,ROW,COL
 ---------------------------------------------------------------------------
  1   13.00      0  0.1099      0  0.1987E-02  0  0.1583E-04  1 -0.3128E-06
   (  1, 17,  6)  (  1, 19,  5)  (  1, 18,  6)  (  1, 19,  5)  (  1, 23,  6)

 MAXIMUM RESIDUAL FOR EACH ITERATION (1 INDICATES THE FIRST INNER ITERATION):

    RESIDUAL       RESIDUAL       RESIDUAL       RESIDUAL       RESIDUAL    
   LAYER,ROW,COL  LAYER,ROW,COL  LAYER,ROW,COL  LAYER,ROW,COL  LAYER,ROW,COL
 ---------------------------------------------------------------------------
  1 -0.3590E-04  0 -0.8249E-06  0 -0.5736E-08  0 -0.6735E-10  1  0.1610E-11
   (  1, 19,  5)  (  1, 18,  6)  (  1, 19,  5)  (  1, 18,  6)  (  1, 24,  5)


 UBUDSV SAVING "      ZETASRF  1" ON UNIT170 AT TIME STEP 11, STRESS PERIOD    2


                      VOLUMETRIC SWI ZONE BUDGET FOR ENTIRE MODEL
                     AT END OF TIME STEP   11 IN STRESS PERIOD   2
                                      ZONE     1
  -----------------------------------------------------------------------------------

        CUMULATIVE VOLUMES      L**3       RATES FOR THIS TIME STEP      L**3/T
        ------------------                 ------------------------

              IN:                                      IN:
              ---                                      ---
             BOUNDARIES =   546852928.0000            BOUNDARIES =           0.2465
          CONSTANT HEAD =           0.0000         CONSTANT HEAD =           0.0000
            ZONE CHANGE =   109565792.0000           ZONE CHANGE =           0.1301
       ZONE CHG TIP/TOE =     4003825.5000      ZONE CHG TIP/TOE =       2.0294E-03
            ZONE MIXING =           0.0000           ZONE MIXING =           0.0000

               TOTAL IN =   660422528.0000              TOTAL IN =           0.3786

             OUT:                                     OUT:
             ----                                     ----
             BOUNDARIES =   549693056.0000            BOUNDARIES =           0.3911
          CONSTANT HEAD =           0.0000         CONSTANT HEAD =           0.0000
            ZONE CHANGE =    23690492.0000           ZONE CHANGE =       3.0958E-03
       ZONE CHG TIP/TOE =     3840504.5000      ZONE CHG TIP/TOE =       3.9826E-03
            ZONE MIXING =           0.0000           ZONE MIXING =           0.0000

              TOTAL OUT =   577224064.0000             TOTAL OUT =           0.3982

               IN - OUT =    83198464.0000              IN - OUT =      -1.9619E-02

    PERCENT DISCREPANCY =          13.44     PERCENT DISCREPANCY =          -5.05



                      VOLUMETRIC SWI ZONE BUDGET FOR ENTIRE MODEL
                     AT END OF TIME STEP   11 IN STRESS PERIOD   2
                                      ZONE     2
  -----------------------------------------------------------------------------------

        CUMULATIVE VOLUMES      L**3       RATES FOR THIS TIME STEP      L**3/T
        ------------------                 ------------------------

              IN:                                      IN:
              ---                                      ---
             BOUNDARIES =     5243585.5000            BOUNDARIES =       4.1979E-02
          CONSTANT HEAD =           0.0000         CONSTANT HEAD =           0.0000
            ZONE CHANGE =    20494762.0000           ZONE CHANGE =       3.1012E-03
       ZONE CHG TIP/TOE =     4039253.7500      ZONE CHG TIP/TOE =       6.2280E-03
            ZONE MIXING =           0.0000           ZONE MIXING =           0.0000

               TOTAL IN =    29777602.0000              TOTAL IN =       5.1308E-02

             OUT:                                     OUT:
             ----                                     ----
             BOUNDARIES =    27722404.0000            BOUNDARIES =       4.8990E-11
          CONSTANT HEAD =           0.0000         CONSTANT HEAD =           0.0000
            ZONE CHANGE =     8046504.5000           ZONE CHANGE =       4.6708E-02
       ZONE CHG TIP/TOE =     1682654.7500      ZONE CHG TIP/TOE =       2.0294E-03
            ZONE MIXING =           0.0000           ZONE MIXING =           0.0000

              TOTAL OUT =    37451564.0000             TOTAL OUT =       4.8738E-02

               IN - OUT =    -7673962.0000              IN - OUT =       2.5705E-03

    PERCENT DISCREPANCY =         -22.83     PERCENT DISCREPANCY =           5.14


 HEAD WILL BE SAVED ON UNIT   37 AT END OF TIME STEP   11, STRESS PERIOD    2

 DRAWDOWN WILL BE SAVED ON UNIT   38 AT END OF TIME STEP   11, STRESS PERIOD    2
1
  VOLUMETRIC BUDGET FOR ENTIRE MODEL AT END OF TIME STEP   11, STRESS PERIOD   2
  ------------------------------------------------------------------------------

     CUMULATIVE VOLUMES      L**3       RATES FOR THIS TIME STEP      L**3/T
     ------------------                 ------------------------

           IN:                                      IN:
           ---                                      ---
             STORAGE =    25310716.0000               STORAGE =           0.1027
       CONSTANT HEAD =           0.0000         CONSTANT HEAD =           0.0000
               WELLS =           0.0000                 WELLS =           0.0000
       RIVER LEAKAGE =   117426176.0000         RIVER LEAKAGE =       4.2982E-02
                  ET =           0.0000                    ET =           0.0000
     HEAD DEP BOUNDS =     8111127.0000       HEAD DEP BOUNDS =       6.8912E-02
            RECHARGE =   455284256.0000              RECHARGE =           0.1984
          SWIADDTOCH =           0.0000            SWIADDTOCH =           0.0000

            TOTAL IN =   606132288.0000              TOTAL IN =           0.4130

          OUT:                                     OUT:
          ----                                     ----
             STORAGE =        4985.8208               STORAGE =       2.6396E-07
       CONSTANT HEAD =           0.0000         CONSTANT HEAD =           0.0000
               WELLS =    68338512.0000                 WELLS =           0.3940
       RIVER LEAKAGE =    21630804.0000         RIVER LEAKAGE =           0.0000
                  ET =   166413648.0000                    ET =           0.0000
     HEAD DEP BOUNDS =   349757280.0000       HEAD DEP BOUNDS =       1.9023E-02
            RECHARGE =           0.0000              RECHARGE =           0.0000
          SWIADDTOCH =           0.0000            SWIADDTOCH =           0.0000

           TOTAL OUT =   606145216.0000             TOTAL OUT =           0.4130

            IN - OUT =      -12928.0000              IN - OUT =      -9.8348E-07

 PERCENT DISCREPANCY =          -0.00     PERCENT DISCREPANCY =          -0.00






         TIME SUMMARY AT END OF TIME STEP   11 IN STRESS PERIOD    2
                    SECONDS     MINUTES      HOURS       DAYS        YEARS
                    -----------------------------------------------------------
   TIME STEP LENGTH 1.57680E+07 2.62800E+05  4380.0      182.50     0.49966    
 STRESS PERIOD TIME 1.73448E+08 2.89080E+06  48180.      2007.5      5.4962    
         TOTAL TIME 3.32705E+09 5.54508E+07 9.24180E+05  38508.      105.43    
1
 
 SOLVING FOR HEAD 

 CELL CONVERSIONS FOR ITER.=  2  LAYER=  1  STEP= 12  PERIOD=   2   (ROW,COL)
    DRY( 48, 25)   DRY( 49, 24)   
     3 CALLS TO PCG ROUTINE FOR TIME STEP  12 IN STRESS PERIOD    2
    11 TOTAL ITERATIONS

 MAXIMUM HEAD CHANGE FOR EACH ITERATION (1 INDICATES THE FIRST INNER ITERATION):

    HEAD CHANGE    HEAD CHANGE    HEAD CHANGE    HEAD CHANGE    HEAD CHANGE 
   LAYER,ROW,COL  LAYER,ROW,COL  LAYER,ROW,COL  LAYER,ROW,COL  LAYER,ROW,COL
 ---------------------------------------------------------------------------
  1 -0.4227      0  0.1463      0  0.2450E-01  0 -0.7332E-02  0 -0.2638E-02
   (  2, 19,  6)  (  2, 20,  6)  (  2, 18,  8)  (  1, 35,  8)  (  2, 34,  9)
  0 -0.9074E-03  1 -0.5732E-01  0 -0.1172E-01  0 -0.2826E-02  0 -0.6429E-03
   (  1, 35,  8)  (  2, 49, 24)  (  2, 49, 24)  (  2, 47, 26)  (  2, 45, 28)
  1 -0.9558E-03
   (  2, 18, 10)

 MAXIMUM RESIDUAL FOR EACH ITERATION (1 INDICATES THE FIRST INNER ITERATION):

    RESIDUAL       RESIDUAL       RESIDUAL       RESIDUAL       RESIDUAL    
   LAYER,ROW,COL  LAYER,ROW,COL  LAYER,ROW,COL  LAYER,ROW,COL  LAYER,ROW,COL
 ---------------------------------------------------------------------------
  1 -0.1053E-02  0  0.2118E-03  0 -0.4683E-04  0 -0.1176E-04  0  0.3851E-05
   (  2, 19,  6)  (  2, 19,  7)  (  1, 18,  7)  (  1, 19,  7)  (  1, 17,  6)
  0  0.1039E-05  1  0.6515E-04  0  0.1825E-04  0  0.4924E-05  0  0.1325E-05
   (  1, 15,  7)  (  2, 49, 24)  (  2, 49, 24)  (  2, 49, 24)  (  2, 49, 24)
  1  0.9536E-06
   (  2, 47, 26)



 OUTPUT CONTROL FOR STRESS PERIOD    2   TIME STEP   12
    SAVE HEAD FOR ALL LAYERS
    SAVE DRAWDOWN FOR ALL LAYERS
    SAVE BUDGET
    PRINT BUDGET
 UBDSV1 SAVING "         STORAGE" ON UNIT   9 AT TIME STEP 12, STRESS PERIOD   2
 UBDSV2 SAVING "   CONSTANT HEAD" ON UNIT   9 AT TIME STEP 12, STRESS PERIOD   2
 UBDSV1 SAVING "FLOW RIGHT FACE " ON UNIT   9 AT TIME STEP 12, STRESS PERIOD   2
 UBDSV1 SAVING "FLOW FRONT FACE " ON UNIT   9 AT TIME STEP 12, STRESS PERIOD   2
 UBDSV1 SAVING "FLOW LOWER FACE " ON UNIT   9 AT TIME STEP 12, STRESS PERIOD   2
 UBDSV4 SAVING "           WELLS" ON UNIT   9 AT TIME STEP 12, STRESS PERIOD   2
 UBDSV4 SAVING "   RIVER LEAKAGE" ON UNIT   9 AT TIME STEP 12, STRESS PERIOD   2
 UBDSV3 SAVING "              ET" ON UNIT   9 AT TIME STEP 12, STRESS PERIOD   2
 UBDSV4 SAVING " HEAD DEP BOUNDS" ON UNIT   9 AT TIME STEP 12, STRESS PERIOD   2
 UBDSV3 SAVING "        RECHARGE" ON UNIT   9 AT TIME STEP 12, STRESS PERIOD   2
 SOLVING FOR ZETA FOR LAYER     1 ZONE     2
     2 CALLS TO PCG ROUTINE FOR TIME STEP  12 IN STRESS PERIOD    2
     4 TOTAL ITERATIONS

 MAXIMUM HEAD CHANGE FOR EACH ITERATION (1 INDICATES THE FIRST INNER ITERATION):

    HEAD CHANGE    HEAD CHANGE    HEAD CHANGE    HEAD CHANGE    HEAD CHANGE 
   LAYER,ROW,COL  LAYER,ROW,COL  LAYER,ROW,COL  LAYER,ROW,COL  LAYER,ROW,COL
 ---------------------------------------------------------------------------
  1   4.005      0  0.5064E-01  0  0.3490E-03  1  0.2736E-05
   (  1, 18,  4)  (  1, 19,  3)  (  1, 18,  4)  (  1, 27,  4)

 MAXIMUM RESIDUAL FOR EACH ITERATION (1 INDICATES THE FIRST INNER ITERATION):

    RESIDUAL       RESIDUAL       RESIDUAL       RESIDUAL       RESIDUAL    
   LAYER,ROW,COL  LAYER,ROW,COL  LAYER,ROW,COL  LAYER,ROW,COL  LAYER,ROW,COL
 ---------------------------------------------------------------------------
  1 -0.1559E-04  0 -0.1093E-06  0 -0.7695E-09  1 -0.5836E-11
   (  1, 19,  3)  (  1, 18,  4)  (  1, 27,  4)  (  1, 18,  4)


 SOLVING FOR ZETA FOR LAYER     2 ZONE     2
     2 CALLS TO PCG ROUTINE FOR TIME STEP  12 IN STRESS PERIOD    2
     5 TOTAL ITERATIONS

 MAXIMUM HEAD CHANGE FOR EACH ITERATION (1 INDICATES THE FIRST INNER ITERATION):

    HEAD CHANGE    HEAD CHANGE    HEAD CHANGE    HEAD CHANGE    HEAD CHANGE 
   LAYER,ROW,COL  LAYER,ROW,COL  LAYER,ROW,COL  LAYER,ROW,COL  LAYER,ROW,COL
 ---------------------------------------------------------------------------
  1   19.53      0  0.1435      0  0.2026E-02  0  0.1447E-04  1 -0.7763E-06
   (  1, 19,  7)  (  1, 17,  5)  (  1, 16,  6)  (  1, 18,  5)  (  1, 19,  7)

 MAXIMUM RESIDUAL FOR EACH ITERATION (1 INDICATES THE FIRST INNER ITERATION):

    RESIDUAL       RESIDUAL       RESIDUAL       RESIDUAL       RESIDUAL    
   LAYER,ROW,COL  LAYER,ROW,COL  LAYER,ROW,COL  LAYER,ROW,COL  LAYER,ROW,COL
 ---------------------------------------------------------------------------
  1 -0.5357E-04  0 -0.6464E-06  0 -0.5279E-08  0 -0.8147E-10  1  0.2140E-11
   (  1, 17,  5)  (  1, 16,  6)  (  1, 18,  5)  (  1, 17,  6)  (  1, 17,  5)


 UBUDSV SAVING "      ZETASRF  1" ON UNIT170 AT TIME STEP 12, STRESS PERIOD    2


                      VOLUMETRIC SWI ZONE BUDGET FOR ENTIRE MODEL
                     AT END OF TIME STEP   12 IN STRESS PERIOD   2
                                      ZONE     1
  -----------------------------------------------------------------------------------

        CUMULATIVE VOLUMES      L**3       RATES FOR THIS TIME STEP      L**3/T
        ------------------                 ------------------------

              IN:                                      IN:
              ---                                      ---
             BOUNDARIES =   550753984.0000            BOUNDARIES =           0.2474
          CONSTANT HEAD =           0.0000         CONSTANT HEAD =           0.0000
            ZONE CHANGE =   111636512.0000           ZONE CHANGE =           0.1313
       ZONE CHG TIP/TOE =     4044570.5000      ZONE CHG TIP/TOE =       2.5840E-03
            ZONE MIXING =           0.0000           ZONE MIXING =           0.0000

               TOTAL IN =   666435072.0000              TOTAL IN =           0.3813

             OUT:                                     OUT:
             ----                                     ----
             BOUNDARIES =   555846720.0000            BOUNDARIES =           0.3903
          CONSTANT HEAD =           0.0000         CONSTANT HEAD =           0.0000
            ZONE CHANGE =    23747974.0000           ZONE CHANGE =       3.6455E-03
       ZONE CHG TIP/TOE =     3919326.5000      ZONE CHG TIP/TOE =       4.9989E-03
            ZONE MIXING =           0.0000           ZONE MIXING =           0.0000

              TOTAL OUT =   583514048.0000             TOTAL OUT =           0.3989

               IN - OUT =    82921024.0000              IN - OUT =      -1.7595E-02

    PERCENT DISCREPANCY =          13.27     PERCENT DISCREPANCY =          -4.51



                      VOLUMETRIC SWI ZONE BUDGET FOR ENTIRE MODEL
                     AT END OF TIME STEP   12 IN STRESS PERIOD   2
                                      ZONE     2
  -----------------------------------------------------------------------------------

        CUMULATIVE VOLUMES      L**3       RATES FOR THIS TIME STEP      L**3/T
        ------------------                 ------------------------

              IN:                                      IN:
              ---                                      ---
             BOUNDARIES =     5926308.0000            BOUNDARIES =       4.3298E-02
          CONSTANT HEAD =           0.0000         CONSTANT HEAD =           0.0000
            ZONE CHANGE =    20552332.0000           ZONE CHANGE =       3.6511E-03
       ZONE CHG TIP/TOE =     4133485.2500      ZONE CHG TIP/TOE =       5.9761E-03
            ZONE MIXING =           0.0000           ZONE MIXING =           0.0000

               TOTAL IN =    30612126.0000              TOTAL IN =       5.2925E-02

             OUT:                                     OUT:
             ----                                     ----
             BOUNDARIES =    27722404.0000            BOUNDARIES =       6.3264E-11
          CONSTANT HEAD =           0.0000         CONSTANT HEAD =           0.0000
            ZONE CHANGE =     8823516.0000           ZONE CHANGE =       4.9278E-02
       ZONE CHG TIP/TOE =     1723399.7500      ZONE CHG TIP/TOE =       2.5840E-03
            ZONE MIXING =           0.0000           ZONE MIXING =           0.0000

              TOTAL OUT =    38269320.0000             TOTAL OUT =       5.1862E-02

               IN - OUT =    -7657194.0000              IN - OUT =       1.0634E-03

    PERCENT DISCREPANCY =         -22.23     PERCENT DISCREPANCY =           2.03


 HEAD WILL BE SAVED ON UNIT   37 AT END OF TIME STEP   12, STRESS PERIOD    2

 DRAWDOWN WILL BE SAVED ON UNIT   38 AT END OF TIME STEP   12, STRESS PERIOD    2
1
  VOLUMETRIC BUDGET FOR ENTIRE MODEL AT END OF TIME STEP   12, STRESS PERIOD   2
  ------------------------------------------------------------------------------

     CUMULATIVE VOLUMES      L**3       RATES FOR THIS TIME STEP      L**3/T
     ------------------                 ------------------------

           IN:                                      IN:
           ---                                      ---
             STORAGE =    26880546.0000               STORAGE =       9.9558E-02
       CONSTANT HEAD =           0.0000         CONSTANT HEAD =           0.0000
               WELLS =           0.0000                 WELLS =           0.0000
       RIVER LEAKAGE =   118104200.0000         RIVER LEAKAGE =       4.3000E-02
                  ET =           0.0000                    ET =           0.0000
     HEAD DEP BOUNDS =     9238900.0000       HEAD DEP BOUNDS =       7.1523E-02
            RECHARGE =   458407264.0000              RECHARGE =           0.1981
          SWIADDTOCH =           0.0000            SWIADDTOCH =           0.0000

            TOTAL IN =   612630912.0000              TOTAL IN =           0.4121

          OUT:                                     OUT:
          ----                                     ----
             STORAGE =        4989.2495               STORAGE =       2.1746E-07
       CONSTANT HEAD =           0.0000         CONSTANT HEAD =           0.0000
               WELLS =    74551104.0000                 WELLS =           0.3940
       RIVER LEAKAGE =    21630804.0000         RIVER LEAKAGE =           0.0000
                  ET =   166413648.0000                    ET =           0.0000
     HEAD DEP BOUNDS =   350043360.0000       HEAD DEP BOUNDS =       1.8143E-02
            RECHARGE =           0.0000              RECHARGE =           0.0000
          SWIADDTOCH =           0.0000            SWIADDTOCH =           0.0000

           TOTAL OUT =   612643904.0000             TOTAL OUT =           0.4121

            IN - OUT =      -12992.0000              IN - OUT =      -3.0100E-06

 PERCENT DISCREPANCY =          -0.00     PERCENT DISCREPANCY =          -0.00






         TIME SUMMARY AT END OF TIME STEP   12 IN STRESS PERIOD    2
                    SECONDS     MINUTES      HOURS       DAYS        YEARS
                    -----------------------------------------------------------
   TIME STEP LENGTH 1.57680E+07 2.62800E+05  4380.0      182.50     0.49966    
 STRESS PERIOD TIME 1.89216E+08 3.15360E+06  52560.      2190.0      5.9959    
         TOTAL TIME 3.34282E+09 5.57136E+07 9.28560E+05  38690.      105.93    
1
 
 SOLVING FOR HEAD 

 CELL CONVERSIONS FOR ITER.=  2  LAYER=  1  STEP= 13  PERIOD=   2   (ROW,COL)
    DRY( 37, 36)   DRY( 41, 36)   DRY( 47, 26)   
     4 CALLS TO PCG ROUTINE FOR TIME STEP  13 IN STRESS PERIOD    2
    14 TOTAL ITERATIONS

 MAXIMUM HEAD CHANGE FOR EACH ITERATION (1 INDICATES THE FIRST INNER ITERATION):

    HEAD CHANGE    HEAD CHANGE    HEAD CHANGE    HEAD CHANGE    HEAD CHANGE 
   LAYER,ROW,COL  LAYER,ROW,COL  LAYER,ROW,COL  LAYER,ROW,COL  LAYER,ROW,COL
 ---------------------------------------------------------------------------
  1 -0.7459      0 -0.1829      0 -0.3698E-01  0 -0.7576E-02  0 -0.2665E-02
   (  2, 21,  7)  (  2, 20,  8)  (  1, 22,  7)  (  2, 21, 10)  (  2, 34,  9)
  0 -0.9861E-03  1  0.3356      0  0.4838E-01  0  0.1212E-01  0  0.1798E-02
   (  1, 35,  8)  (  2, 47, 26)  (  2, 49, 24)  (  2, 48, 25)  (  2, 46, 27)
  0 -0.6405E-03  1  0.1194E-02  0  0.3291E-03  1  0.6733E-04
   (  2, 51, 28)  (  1, 45, 27)  (  1, 45, 27)  (  2, 34,  9)

 MAXIMUM RESIDUAL FOR EACH ITERATION (1 INDICATES THE FIRST INNER ITERATION):

    RESIDUAL       RESIDUAL       RESIDUAL       RESIDUAL       RESIDUAL    
   LAYER,ROW,COL  LAYER,ROW,COL  LAYER,ROW,COL  LAYER,ROW,COL  LAYER,ROW,COL
 ---------------------------------------------------------------------------
  1 -0.1437E-02  0 -0.3231E-03  0 -0.7290E-04  0 -0.1930E-04  0  0.5111E-05
   (  2, 21,  7)  (  2, 21,  7)  (  1, 20,  8)  (  1, 22,  6)  (  1, 23,  6)
  0  0.2262E-05  1 -0.1830E-03  0 -0.7744E-04  0 -0.1463E-04  0 -0.4400E-05
   (  1, 21,  7)  (  2, 47, 26)  (  2, 48, 25)  (  2, 48, 25)  (  2, 49, 24)
  0 -0.1684E-05  1 -0.2268E-05  0  0.7962E-06  1 -0.5209E-06
   (  2, 45, 28)  (  1, 45, 27)  (  2, 45, 27)  (  1, 45, 27)



 OUTPUT CONTROL FOR STRESS PERIOD    2   TIME STEP   13
    SAVE HEAD FOR ALL LAYERS
    SAVE DRAWDOWN FOR ALL LAYERS
    SAVE BUDGET
    PRINT BUDGET
 UBDSV1 SAVING "         STORAGE" ON UNIT   9 AT TIME STEP 13, STRESS PERIOD   2
 UBDSV2 SAVING "   CONSTANT HEAD" ON UNIT   9 AT TIME STEP 13, STRESS PERIOD   2
 UBDSV1 SAVING "FLOW RIGHT FACE " ON UNIT   9 AT TIME STEP 13, STRESS PERIOD   2
 UBDSV1 SAVING "FLOW FRONT FACE " ON UNIT   9 AT TIME STEP 13, STRESS PERIOD   2
 UBDSV1 SAVING "FLOW LOWER FACE " ON UNIT   9 AT TIME STEP 13, STRESS PERIOD   2
 UBDSV4 SAVING "           WELLS" ON UNIT   9 AT TIME STEP 13, STRESS PERIOD   2
 UBDSV4 SAVING "   RIVER LEAKAGE" ON UNIT   9 AT TIME STEP 13, STRESS PERIOD   2
 UBDSV3 SAVING "              ET" ON UNIT   9 AT TIME STEP 13, STRESS PERIOD   2
 UBDSV4 SAVING " HEAD DEP BOUNDS" ON UNIT   9 AT TIME STEP 13, STRESS PERIOD   2
 UBDSV3 SAVING "        RECHARGE" ON UNIT   9 AT TIME STEP 13, STRESS PERIOD   2
 SOLVING FOR ZETA FOR LAYER     1 ZONE     2
     2 CALLS TO PCG ROUTINE FOR TIME STEP  13 IN STRESS PERIOD    2
     4 TOTAL ITERATIONS

 MAXIMUM HEAD CHANGE FOR EACH ITERATION (1 INDICATES THE FIRST INNER ITERATION):

    HEAD CHANGE    HEAD CHANGE    HEAD CHANGE    HEAD CHANGE    HEAD CHANGE 
   LAYER,ROW,COL  LAYER,ROW,COL  LAYER,ROW,COL  LAYER,ROW,COL  LAYER,ROW,COL
 ---------------------------------------------------------------------------
  1   3.871      0  0.5447E-01  0  0.4095E-03  1  0.2928E-05
   (  1, 18,  4)  (  1, 19,  3)  (  1, 18,  4)  (  1, 27,  4)

 MAXIMUM RESIDUAL FOR EACH ITERATION (1 INDICATES THE FIRST INNER ITERATION):

    RESIDUAL       RESIDUAL       RESIDUAL       RESIDUAL       RESIDUAL    
   LAYER,ROW,COL  LAYER,ROW,COL  LAYER,ROW,COL  LAYER,ROW,COL  LAYER,ROW,COL
 ---------------------------------------------------------------------------
  1 -0.1699E-04  0 -0.1301E-06  0 -0.8206E-09  1 -0.8404E-11
   (  1, 19,  3)  (  1, 18,  4)  (  1, 27,  4)  (  1, 18,  4)


 SOLVING FOR ZETA FOR LAYER     2 ZONE     2
     2 CALLS TO PCG ROUTINE FOR TIME STEP  13 IN STRESS PERIOD    2
     5 TOTAL ITERATIONS

 MAXIMUM HEAD CHANGE FOR EACH ITERATION (1 INDICATES THE FIRST INNER ITERATION):

    HEAD CHANGE    HEAD CHANGE    HEAD CHANGE    HEAD CHANGE    HEAD CHANGE 
   LAYER,ROW,COL  LAYER,ROW,COL  LAYER,ROW,COL  LAYER,ROW,COL  LAYER,ROW,COL
 ---------------------------------------------------------------------------
  1   18.12      0  0.1836      0  0.2812E-02  0  0.2347E-04  1  0.7913E-06
   (  1, 20,  7)  (  1, 21,  6)  (  1, 22,  5)  (  1, 20,  6)  (  1, 17,  7)

 MAXIMUM RESIDUAL FOR EACH ITERATION (1 INDICATES THE FIRST INNER ITERATION):

    RESIDUAL       RESIDUAL       RESIDUAL       RESIDUAL       RESIDUAL    
   LAYER,ROW,COL  LAYER,ROW,COL  LAYER,ROW,COL  LAYER,ROW,COL  LAYER,ROW,COL
 ---------------------------------------------------------------------------
  1 -0.6082E-04  0 -0.9564E-06  0 -0.8578E-08  0 -0.1330E-09  1 -0.4896E-11
   (  1, 21,  6)  (  1, 22,  5)  (  1, 20,  6)  (  1, 21,  5)  (  1, 20,  6)


 UBUDSV SAVING "      ZETASRF  1" ON UNIT170 AT TIME STEP 13, STRESS PERIOD    2


                      VOLUMETRIC SWI ZONE BUDGET FOR ENTIRE MODEL
                     AT END OF TIME STEP   13 IN STRESS PERIOD   2
                                      ZONE     1
  -----------------------------------------------------------------------------------

        CUMULATIVE VOLUMES      L**3       RATES FOR THIS TIME STEP      L**3/T
        ------------------                 ------------------------

              IN:                                      IN:
              ---                                      ---
             BOUNDARIES =   554666880.0000            BOUNDARIES =           0.2482
          CONSTANT HEAD =           0.0000         CONSTANT HEAD =           0.0000
            ZONE CHANGE =   113686112.0000           ZONE CHANGE =           0.1300
       ZONE CHG TIP/TOE =     4076570.5000      ZONE CHG TIP/TOE =       2.0294E-03
            ZONE MIXING =           0.0000           ZONE MIXING =           0.0000

               TOTAL IN =   672429568.0000              TOTAL IN =           0.3802

             OUT:                                     OUT:
             ----                                     ----
             BOUNDARIES =   561958592.0000            BOUNDARIES =           0.3876
          CONSTANT HEAD =           0.0000         CONSTANT HEAD =           0.0000
            ZONE CHANGE =    23820770.0000           ZONE CHANGE =       4.6167E-03
       ZONE CHG TIP/TOE =     3962819.0000      ZONE CHG TIP/TOE =       2.7583E-03
            ZONE MIXING =           0.0000           ZONE MIXING =           0.0000

              TOTAL OUT =   589742208.0000             TOTAL OUT =           0.3950

               IN - OUT =    82687360.0000              IN - OUT =      -1.4821E-02

    PERCENT DISCREPANCY =          13.10     PERCENT DISCREPANCY =          -3.82



                      VOLUMETRIC SWI ZONE BUDGET FOR ENTIRE MODEL
                     AT END OF TIME STEP   13 IN STRESS PERIOD   2
                                      ZONE     2
  -----------------------------------------------------------------------------------

        CUMULATIVE VOLUMES      L**3       RATES FOR THIS TIME STEP      L**3/T
        ------------------                 ------------------------

              IN:                                      IN:
              ---                                      ---
             BOUNDARIES =     6627683.0000            BOUNDARIES =       4.4481E-02
          CONSTANT HEAD =           0.0000         CONSTANT HEAD =           0.0000
            ZONE CHANGE =    20625198.0000           ZONE CHANGE =       4.6212E-03
       ZONE CHG TIP/TOE =     4198325.5000      ZONE CHG TIP/TOE =       4.1121E-03
            ZONE MIXING =           0.0000           ZONE MIXING =           0.0000

               TOTAL IN =    31451208.0000              TOTAL IN =       5.3214E-02

             OUT:                                     OUT:
             ----                                     ----
             BOUNDARIES =    27722404.0000            BOUNDARIES =       5.4045E-11
          CONSTANT HEAD =           0.0000         CONSTANT HEAD =           0.0000
            ZONE CHANGE =     9645539.0000           ZONE CHANGE =       5.2132E-02
       ZONE CHG TIP/TOE =     1755399.7500      ZONE CHG TIP/TOE =       2.0294E-03
            ZONE MIXING =           0.0000           ZONE MIXING =           0.0000

              TOTAL OUT =    39123344.0000             TOTAL OUT =       5.4162E-02

               IN - OUT =    -7672136.0000              IN - OUT =      -9.4755E-04

    PERCENT DISCREPANCY =         -21.74     PERCENT DISCREPANCY =          -1.76


 HEAD WILL BE SAVED ON UNIT   37 AT END OF TIME STEP   13, STRESS PERIOD    2

 DRAWDOWN WILL BE SAVED ON UNIT   38 AT END OF TIME STEP   13, STRESS PERIOD    2
1
  VOLUMETRIC BUDGET FOR ENTIRE MODEL AT END OF TIME STEP   13, STRESS PERIOD   2
  ------------------------------------------------------------------------------

     CUMULATIVE VOLUMES      L**3       RATES FOR THIS TIME STEP      L**3/T
     ------------------                 ------------------------

           IN:                                      IN:
           ---                                      ---
             STORAGE =    28378216.0000               STORAGE =       9.4982E-02
       CONSTANT HEAD =           0.0000         CONSTANT HEAD =           0.0000
               WELLS =           0.0000                 WELLS =           0.0000
       RIVER LEAKAGE =   118782224.0000         RIVER LEAKAGE =       4.3000E-02
                  ET =           0.0000                    ET =           0.0000
     HEAD DEP BOUNDS =    10403123.0000       HEAD DEP BOUNDS =       7.3835E-02
            RECHARGE =   461521280.0000              RECHARGE =           0.1975
          SWIADDTOCH =           0.0000            SWIADDTOCH =           0.0000

            TOTAL IN =   619084864.0000              TOTAL IN =           0.4093

          OUT:                                     OUT:
          ----                                     ----
             STORAGE =        5020.0635               STORAGE =       1.9542E-06
       CONSTANT HEAD =           0.0000         CONSTANT HEAD =           0.0000
               WELLS =    80732160.0000                 WELLS =           0.3920
       RIVER LEAKAGE =    21630804.0000         RIVER LEAKAGE =           0.0000
                  ET =   166413648.0000                    ET =           0.0000
     HEAD DEP BOUNDS =   350316192.0000       HEAD DEP BOUNDS =       1.7303E-02
            RECHARGE =           0.0000              RECHARGE =           0.0000
          SWIADDTOCH =           0.0000            SWIADDTOCH =           0.0000

           TOTAL OUT =   619097856.0000             TOTAL OUT =           0.4093

            IN - OUT =      -12992.0000              IN - OUT =       2.6822E-07

 PERCENT DISCREPANCY =          -0.00     PERCENT DISCREPANCY =           0.00






         TIME SUMMARY AT END OF TIME STEP   13 IN STRESS PERIOD    2
                    SECONDS     MINUTES      HOURS       DAYS        YEARS
                    -----------------------------------------------------------
   TIME STEP LENGTH 1.57680E+07 2.62800E+05  4380.0      182.50     0.49966    
 STRESS PERIOD TIME 2.04984E+08 3.41640E+06  56940.      2372.5      6.4956    
         TOTAL TIME 3.35858E+09 5.59764E+07 9.32940E+05  38873.      106.43    
1
 
 SOLVING FOR HEAD 

 CELL CONVERSIONS FOR ITER.=  2  LAYER=  1  STEP= 14  PERIOD=   2   (ROW,COL)
    DRY( 17, 38)   
     3 CALLS TO PCG ROUTINE FOR TIME STEP  14 IN STRESS PERIOD    2
    13 TOTAL ITERATIONS

 MAXIMUM HEAD CHANGE FOR EACH ITERATION (1 INDICATES THE FIRST INNER ITERATION):

    HEAD CHANGE    HEAD CHANGE    HEAD CHANGE    HEAD CHANGE    HEAD CHANGE 
   LAYER,ROW,COL  LAYER,ROW,COL  LAYER,ROW,COL  LAYER,ROW,COL  LAYER,ROW,COL
 ---------------------------------------------------------------------------
  1 -0.4308      0 -0.1487      0 -0.3339E-01  0 -0.7160E-02  0 -0.2683E-02
   (  2, 16,  6)  (  2, 21,  7)  (  2, 19,  8)  (  1, 35,  8)  (  2, 34,  9)
  0 -0.1158E-02  0 -0.3379E-03  1  0.4778      0  0.4852E-01  0  0.1042E-01
   (  1, 35,  8)  (  2, 34,  9)  (  2, 17, 38)  (  2, 19, 37)  (  2, 18, 37)
  0  0.1548E-02  0 -0.4998E-03  1 -0.9028E-03
   (  2, 24, 31)  (  2, 23, 37)  (  2, 18, 10)

 MAXIMUM RESIDUAL FOR EACH ITERATION (1 INDICATES THE FIRST INNER ITERATION):

    RESIDUAL       RESIDUAL       RESIDUAL       RESIDUAL       RESIDUAL    
   LAYER,ROW,COL  LAYER,ROW,COL  LAYER,ROW,COL  LAYER,ROW,COL  LAYER,ROW,COL
 ---------------------------------------------------------------------------
  1  0.1247E-02  0 -0.2307E-03  0 -0.5434E-04  0  0.1814E-04  0  0.5955E-05
   (  2, 21,  7)  (  2, 16,  6)  (  2, 16,  6)  (  1, 18,  5)  (  1, 18,  5)
  0  0.1733E-05  0  0.5238E-06  1 -0.2463E-03  0 -0.1028E-03  0 -0.2326E-04
   (  1, 17,  7)  (  2, 17,  5)  (  2, 18, 37)  (  2, 18, 37)  (  2, 18, 37)
  0 -0.5808E-05  0 -0.2041E-05  1  0.1151E-05
   (  2, 19, 36)  (  2, 19, 36)  (  2, 18, 40)



 OUTPUT CONTROL FOR STRESS PERIOD    2   TIME STEP   14
    SAVE HEAD FOR ALL LAYERS
    SAVE DRAWDOWN FOR ALL LAYERS
    SAVE BUDGET
    PRINT BUDGET
 UBDSV1 SAVING "         STORAGE" ON UNIT   9 AT TIME STEP 14, STRESS PERIOD   2
 UBDSV2 SAVING "   CONSTANT HEAD" ON UNIT   9 AT TIME STEP 14, STRESS PERIOD   2
 UBDSV1 SAVING "FLOW RIGHT FACE " ON UNIT   9 AT TIME STEP 14, STRESS PERIOD   2
 UBDSV1 SAVING "FLOW FRONT FACE " ON UNIT   9 AT TIME STEP 14, STRESS PERIOD   2
 UBDSV1 SAVING "FLOW LOWER FACE " ON UNIT   9 AT TIME STEP 14, STRESS PERIOD   2
 UBDSV4 SAVING "           WELLS" ON UNIT   9 AT TIME STEP 14, STRESS PERIOD   2
 UBDSV4 SAVING "   RIVER LEAKAGE" ON UNIT   9 AT TIME STEP 14, STRESS PERIOD   2
 UBDSV3 SAVING "              ET" ON UNIT   9 AT TIME STEP 14, STRESS PERIOD   2
 UBDSV4 SAVING " HEAD DEP BOUNDS" ON UNIT   9 AT TIME STEP 14, STRESS PERIOD   2
 UBDSV3 SAVING "        RECHARGE" ON UNIT   9 AT TIME STEP 14, STRESS PERIOD   2
 SOLVING FOR ZETA FOR LAYER     1 ZONE     2
     2 CALLS TO PCG ROUTINE FOR TIME STEP  14 IN STRESS PERIOD    2
     5 TOTAL ITERATIONS

 MAXIMUM HEAD CHANGE FOR EACH ITERATION (1 INDICATES THE FIRST INNER ITERATION):

    HEAD CHANGE    HEAD CHANGE    HEAD CHANGE    HEAD CHANGE    HEAD CHANGE 
   LAYER,ROW,COL  LAYER,ROW,COL  LAYER,ROW,COL  LAYER,ROW,COL  LAYER,ROW,COL
 ---------------------------------------------------------------------------
  1   11.60      0  0.1031      0  0.1312E-02  0  0.3986E-05  1 -0.2350E-06
   (  1, 18,  5)  (  1, 19,  4)  (  1, 20,  3)  (  1, 18,  4)  (  1, 18,  5)

 MAXIMUM RESIDUAL FOR EACH ITERATION (1 INDICATES THE FIRST INNER ITERATION):

    RESIDUAL       RESIDUAL       RESIDUAL       RESIDUAL       RESIDUAL    
   LAYER,ROW,COL  LAYER,ROW,COL  LAYER,ROW,COL  LAYER,ROW,COL  LAYER,ROW,COL
 ---------------------------------------------------------------------------
  1 -0.3613E-04  0 -0.4597E-06  0 -0.1526E-08  0 -0.1913E-10  1  0.7179E-12
   (  1, 19,  4)  (  1, 20,  3)  (  1, 18,  4)  (  1, 19,  3)  (  1, 19,  4)


 SOLVING FOR ZETA FOR LAYER     2 ZONE     2
     2 CALLS TO PCG ROUTINE FOR TIME STEP  14 IN STRESS PERIOD    2
     5 TOTAL ITERATIONS

 MAXIMUM HEAD CHANGE FOR EACH ITERATION (1 INDICATES THE FIRST INNER ITERATION):

    HEAD CHANGE    HEAD CHANGE    HEAD CHANGE    HEAD CHANGE    HEAD CHANGE 
   LAYER,ROW,COL  LAYER,ROW,COL  LAYER,ROW,COL  LAYER,ROW,COL  LAYER,ROW,COL
 ---------------------------------------------------------------------------
  1   22.76      0  0.1122      0  0.2670E-02  0  0.3047E-04  1  0.1077E-05
   (  1, 16,  7)  (  1, 20,  6)  (  1, 21,  5)  (  1, 20,  6)  (  1, 16,  7)

 MAXIMUM RESIDUAL FOR EACH ITERATION (1 INDICATES THE FIRST INNER ITERATION):

    RESIDUAL       RESIDUAL       RESIDUAL       RESIDUAL       RESIDUAL    
   LAYER,ROW,COL  LAYER,ROW,COL  LAYER,ROW,COL  LAYER,ROW,COL  LAYER,ROW,COL
 ---------------------------------------------------------------------------
  1 -0.3903E-04  0 -0.8083E-06  0 -0.1234E-07  0  0.1296E-09  1 -0.3543E-11
   (  1, 20,  6)  (  1, 21,  5)  (  1, 20,  6)  (  1, 20,  7)  (  1, 20,  6)


 UBUDSV SAVING "      ZETASRF  1" ON UNIT170 AT TIME STEP 14, STRESS PERIOD    2


                      VOLUMETRIC SWI ZONE BUDGET FOR ENTIRE MODEL
                     AT END OF TIME STEP   14 IN STRESS PERIOD   2
                                      ZONE     1
  -----------------------------------------------------------------------------------

        CUMULATIVE VOLUMES      L**3       RATES FOR THIS TIME STEP      L**3/T
        ------------------                 ------------------------

              IN:                                      IN:
              ---                                      ---
             BOUNDARIES =   558519616.0000            BOUNDARIES =           0.2443
          CONSTANT HEAD =           0.0000         CONSTANT HEAD =           0.0000
            ZONE CHANGE =   115751792.0000           ZONE CHANGE =           0.1310
       ZONE CHG TIP/TOE =     4102413.5000      ZONE CHG TIP/TOE =       1.6390E-03
            ZONE MIXING =           0.0000           ZONE MIXING =           0.0000

               TOTAL IN =   678373824.0000              TOTAL IN =           0.3770

             OUT:                                     OUT:
             ----                                     ----
             BOUNDARIES =   568030720.0000            BOUNDARIES =           0.3851
          CONSTANT HEAD =           0.0000         CONSTANT HEAD =           0.0000
            ZONE CHANGE =    23892504.0000           ZONE CHANGE =       4.5493E-03
       ZONE CHG TIP/TOE =     4020972.5000      ZONE CHG TIP/TOE =       3.6881E-03
            ZONE MIXING =           0.0000           ZONE MIXING =           0.0000

              TOTAL OUT =   595944192.0000             TOTAL OUT =           0.3933

               IN - OUT =    82429632.0000              IN - OUT =      -1.6346E-02

    PERCENT DISCREPANCY =          12.94     PERCENT DISCREPANCY =          -4.24



                      VOLUMETRIC SWI ZONE BUDGET FOR ENTIRE MODEL
                     AT END OF TIME STEP   14 IN STRESS PERIOD   2
                                      ZONE     2
  -----------------------------------------------------------------------------------

        CUMULATIVE VOLUMES      L**3       RATES FOR THIS TIME STEP      L**3/T
        ------------------                 ------------------------

              IN:                                      IN:
              ---                                      ---
             BOUNDARIES =     7422624.5000            BOUNDARIES =       5.0415E-02
          CONSTANT HEAD =           0.0000         CONSTANT HEAD =           0.0000
            ZONE CHANGE =    20696462.0000           ZONE CHANGE =       4.5196E-03
       ZONE CHG TIP/TOE =     4268347.5000      ZONE CHG TIP/TOE =       4.4408E-03
            ZONE MIXING =           0.0000           ZONE MIXING =           0.0000

               TOTAL IN =    32387434.0000              TOTAL IN =       5.9375E-02

             OUT:                                     OUT:
             ----                                     ----
             BOUNDARIES =    27722404.0000            BOUNDARIES =       4.7604E-11
          CONSTANT HEAD =           0.0000         CONSTANT HEAD =           0.0000
            ZONE CHANGE =    10534654.0000           ZONE CHANGE =       5.6387E-02
       ZONE CHG TIP/TOE =     1781242.7500      ZONE CHG TIP/TOE =       1.6390E-03
            ZONE MIXING =           0.0000           ZONE MIXING =           0.0000

              TOTAL OUT =    40038300.0000             TOTAL OUT =       5.8026E-02

               IN - OUT =    -7650866.0000              IN - OUT =       1.3490E-03

    PERCENT DISCREPANCY =         -21.13     PERCENT DISCREPANCY =           2.30


 HEAD WILL BE SAVED ON UNIT   37 AT END OF TIME STEP   14, STRESS PERIOD    2

 DRAWDOWN WILL BE SAVED ON UNIT   38 AT END OF TIME STEP   14, STRESS PERIOD    2
1
  VOLUMETRIC BUDGET FOR ENTIRE MODEL AT END OF TIME STEP   14, STRESS PERIOD   2
  ------------------------------------------------------------------------------

     CUMULATIVE VOLUMES      L**3       RATES FOR THIS TIME STEP      L**3/T
     ------------------                 ------------------------

           IN:                                      IN:
           ---                                      ---
             STORAGE =    29803330.0000               STORAGE =       9.0380E-02
       CONSTANT HEAD =           0.0000         CONSTANT HEAD =           0.0000
               WELLS =           0.0000                 WELLS =           0.0000
       RIVER LEAKAGE =   119460248.0000         RIVER LEAKAGE =       4.3000E-02
                  ET =           0.0000                    ET =           0.0000
     HEAD DEP BOUNDS =    11600785.0000       HEAD DEP BOUNDS =       7.5955E-02
            RECHARGE =   464632288.0000              RECHARGE =           0.1973
          SWIADDTOCH =           0.0000            SWIADDTOCH =           0.0000

            TOTAL IN =   625496640.0000              TOTAL IN =           0.4066

          OUT:                                     OUT:
          ----                                     ----
             STORAGE =        5662.3477               STORAGE =       4.0733E-05
       CONSTANT HEAD =           0.0000         CONSTANT HEAD =           0.0000
               WELLS =    86881680.0000                 WELLS =           0.3900
       RIVER LEAKAGE =    21630804.0000         RIVER LEAKAGE =           0.0000
                  ET =   166413648.0000                    ET =           0.0000
     HEAD DEP BOUNDS =   350577792.0000       HEAD DEP BOUNDS =       1.6591E-02
            RECHARGE =           0.0000              RECHARGE =           0.0000
          SWIADDTOCH =           0.0000            SWIADDTOCH =           0.0000

           TOTAL OUT =   625509568.0000             TOTAL OUT =           0.4066

            IN - OUT =      -12928.0000              IN - OUT =       2.1756E-06

 PERCENT DISCREPANCY =          -0.00     PERCENT DISCREPANCY =           0.00






         TIME SUMMARY AT END OF TIME STEP   14 IN STRESS PERIOD    2
                    SECONDS     MINUTES      HOURS       DAYS        YEARS
                    -----------------------------------------------------------
   TIME STEP LENGTH 1.57680E+07 2.62800E+05  4380.0      182.50     0.49966    
 STRESS PERIOD TIME 2.20752E+08 3.67920E+06  61320.      2555.0      6.9952    
         TOTAL TIME 3.37435E+09 5.62392E+07 9.37320E+05  39055.      106.93    
1
 
 SOLVING FOR HEAD 

 CELL CONVERSIONS FOR ITER.=  2  LAYER=  1  STEP= 15  PERIOD=   2   (ROW,COL)
    DRY( 34, 36)   DRY( 35, 33)   DRY( 45, 27)   DRY( 47, 27)   
     3 CALLS TO PCG ROUTINE FOR TIME STEP  15 IN STRESS PERIOD    2
    12 TOTAL ITERATIONS

 MAXIMUM HEAD CHANGE FOR EACH ITERATION (1 INDICATES THE FIRST INNER ITERATION):

    HEAD CHANGE    HEAD CHANGE    HEAD CHANGE    HEAD CHANGE    HEAD CHANGE 
   LAYER,ROW,COL  LAYER,ROW,COL  LAYER,ROW,COL  LAYER,ROW,COL  LAYER,ROW,COL
 ---------------------------------------------------------------------------
  1 -0.3412      0  0.1093      0 -0.3052E-01  0 -0.6375E-02  0  0.2406E-02
   (  2, 16,  7)  (  2, 15,  7)  (  2, 14,  6)  (  2, 13,  9)  (  2,  5, 11)
  0  0.8217E-03  1  0.3186      0  0.3371E-01  0  0.9079E-02  0  0.1871E-02
   (  2,  4, 14)  (  2, 45, 27)  (  2, 46, 25)  (  2, 48, 22)  (  2, 46, 26)
  0  0.5911E-03  1  0.8168E-03
   (  2, 47, 25)  (  2, 47, 27)

 MAXIMUM RESIDUAL FOR EACH ITERATION (1 INDICATES THE FIRST INNER ITERATION):

    RESIDUAL       RESIDUAL       RESIDUAL       RESIDUAL       RESIDUAL    
   LAYER,ROW,COL  LAYER,ROW,COL  LAYER,ROW,COL  LAYER,ROW,COL  LAYER,ROW,COL
 ---------------------------------------------------------------------------
  1  0.9868E-03  0  0.2128E-03  0  0.4835E-04  0 -0.1486E-04  0  0.5268E-05
   (  2, 16,  6)  (  2, 16,  6)  (  2, 18,  5)  (  2, 16,  7)  (  1, 16,  7)
  0  0.1619E-05  1 -0.2165E-03  0 -0.7340E-04  0 -0.1605E-04  0 -0.4580E-05
   (  1, 16,  7)  (  2, 45, 27)  (  2, 44, 28)  (  2, 46, 26)  (  2, 47, 25)
  0 -0.1851E-05  1 -0.1652E-05
   (  2, 47, 25)  (  2, 45, 28)



 OUTPUT CONTROL FOR STRESS PERIOD    2   TIME STEP   15
    SAVE HEAD FOR ALL LAYERS
    SAVE DRAWDOWN FOR ALL LAYERS
    SAVE BUDGET
    PRINT BUDGET
 UBDSV1 SAVING "         STORAGE" ON UNIT   9 AT TIME STEP 15, STRESS PERIOD   2
 UBDSV2 SAVING "   CONSTANT HEAD" ON UNIT   9 AT TIME STEP 15, STRESS PERIOD   2
 UBDSV1 SAVING "FLOW RIGHT FACE " ON UNIT   9 AT TIME STEP 15, STRESS PERIOD   2
 UBDSV1 SAVING "FLOW FRONT FACE " ON UNIT   9 AT TIME STEP 15, STRESS PERIOD   2
 UBDSV1 SAVING "FLOW LOWER FACE " ON UNIT   9 AT TIME STEP 15, STRESS PERIOD   2
 UBDSV4 SAVING "           WELLS" ON UNIT   9 AT TIME STEP 15, STRESS PERIOD   2
 UBDSV4 SAVING "   RIVER LEAKAGE" ON UNIT   9 AT TIME STEP 15, STRESS PERIOD   2
 UBDSV3 SAVING "              ET" ON UNIT   9 AT TIME STEP 15, STRESS PERIOD   2
 UBDSV4 SAVING " HEAD DEP BOUNDS" ON UNIT   9 AT TIME STEP 15, STRESS PERIOD   2
 UBDSV3 SAVING "        RECHARGE" ON UNIT   9 AT TIME STEP 15, STRESS PERIOD   2
 SOLVING FOR ZETA FOR LAYER     1 ZONE     2
     2 CALLS TO PCG ROUTINE FOR TIME STEP  15 IN STRESS PERIOD    2
     5 TOTAL ITERATIONS

 MAXIMUM HEAD CHANGE FOR EACH ITERATION (1 INDICATES THE FIRST INNER ITERATION):

    HEAD CHANGE    HEAD CHANGE    HEAD CHANGE    HEAD CHANGE    HEAD CHANGE 
   LAYER,ROW,COL  LAYER,ROW,COL  LAYER,ROW,COL  LAYER,ROW,COL  LAYER,ROW,COL
 ---------------------------------------------------------------------------
  1   10.81      0  0.1229      0  0.1723E-02  0 -0.1825E-04  1  0.3550E-06
   (  1, 18,  5)  (  1, 19,  4)  (  1, 20,  3)  (  1, 17,  3)  (  1, 19,  5)

 MAXIMUM RESIDUAL FOR EACH ITERATION (1 INDICATES THE FIRST INNER ITERATION):

    RESIDUAL       RESIDUAL       RESIDUAL       RESIDUAL       RESIDUAL    
   LAYER,ROW,COL  LAYER,ROW,COL  LAYER,ROW,COL  LAYER,ROW,COL  LAYER,ROW,COL
 ---------------------------------------------------------------------------
  1 -0.4439E-04  0 -0.6011E-06  0  0.7062E-08  0  0.4803E-10  1 -0.1310E-11
   (  1, 19,  4)  (  1, 20,  3)  (  1, 17,  3)  (  1, 16,  4)  (  1, 20,  4)


 SOLVING FOR ZETA FOR LAYER     2 ZONE     2
     2 CALLS TO PCG ROUTINE FOR TIME STEP  15 IN STRESS PERIOD    2
     5 TOTAL ITERATIONS

 MAXIMUM HEAD CHANGE FOR EACH ITERATION (1 INDICATES THE FIRST INNER ITERATION):

    HEAD CHANGE    HEAD CHANGE    HEAD CHANGE    HEAD CHANGE    HEAD CHANGE 
   LAYER,ROW,COL  LAYER,ROW,COL  LAYER,ROW,COL  LAYER,ROW,COL  LAYER,ROW,COL
 ---------------------------------------------------------------------------
  1   13.56      0  0.1416      0  0.2543E-02  0  0.3260E-04  1 -0.2896E-06
   (  1, 18,  8)  (  1, 17,  6)  (  1, 18,  5)  (  1, 18,  6)  (  1, 20,  6)

 MAXIMUM RESIDUAL FOR EACH ITERATION (1 INDICATES THE FIRST INNER ITERATION):

    RESIDUAL       RESIDUAL       RESIDUAL       RESIDUAL       RESIDUAL    
   LAYER,ROW,COL  LAYER,ROW,COL  LAYER,ROW,COL  LAYER,ROW,COL  LAYER,ROW,COL
 ---------------------------------------------------------------------------
  1 -0.5359E-04  0 -0.8628E-06  0 -0.1292E-07  0 -0.1200E-09  1 -0.3326E-11
   (  1, 17,  6)  (  1, 18,  5)  (  1, 18,  6)  (  1, 18,  7)  (  1, 18,  6)


 UBUDSV SAVING "      ZETASRF  1" ON UNIT170 AT TIME STEP 15, STRESS PERIOD    2


                      VOLUMETRIC SWI ZONE BUDGET FOR ENTIRE MODEL
                     AT END OF TIME STEP   15 IN STRESS PERIOD   2
                                      ZONE     1
  -----------------------------------------------------------------------------------

        CUMULATIVE VOLUMES      L**3       RATES FOR THIS TIME STEP      L**3/T
        ------------------                 ------------------------

              IN:                                      IN:
              ---                                      ---
             BOUNDARIES =   562348672.0000            BOUNDARIES =           0.2428
          CONSTANT HEAD =           0.0000         CONSTANT HEAD =           0.0000
            ZONE CHANGE =   117767248.0000           ZONE CHANGE =           0.1278
       ZONE CHG TIP/TOE =     4142413.5000      ZONE CHG TIP/TOE =       2.5368E-03
            ZONE MIXING =           0.0000           ZONE MIXING =           0.0000

               TOTAL IN =   684258304.0000              TOTAL IN =           0.3732

             OUT:                                     OUT:
             ----                                     ----
             BOUNDARIES =   574063104.0000            BOUNDARIES =           0.3826
          CONSTANT HEAD =           0.0000         CONSTANT HEAD =           0.0000
            ZONE CHANGE =    23955446.0000           ZONE CHANGE =       3.9917E-03
       ZONE CHG TIP/TOE =     4064826.7500      ZONE CHG TIP/TOE =       2.7812E-03
            ZONE MIXING =           0.0000           ZONE MIXING =           0.0000

              TOTAL OUT =   602083392.0000             TOTAL OUT =           0.3893

               IN - OUT =    82174912.0000              IN - OUT =      -1.6151E-02

    PERCENT DISCREPANCY =          12.78     PERCENT DISCREPANCY =          -4.24



                      VOLUMETRIC SWI ZONE BUDGET FOR ENTIRE MODEL
                     AT END OF TIME STEP   15 IN STRESS PERIOD   2
                                      ZONE     2
  -----------------------------------------------------------------------------------

        CUMULATIVE VOLUMES      L**3       RATES FOR THIS TIME STEP      L**3/T
        ------------------                 ------------------------

              IN:                                      IN:
              ---                                      ---
             BOUNDARIES =     8261825.5000            BOUNDARIES =       5.3222E-02
          CONSTANT HEAD =           0.0000         CONSTANT HEAD =           0.0000
            ZONE CHANGE =    20759226.0000           ZONE CHANGE =       3.9804E-03
       ZONE CHG TIP/TOE =     4340761.5000      ZONE CHG TIP/TOE =       4.5925E-03
            ZONE MIXING =           0.0000           ZONE MIXING =           0.0000

               TOTAL IN =    33361814.0000              TOTAL IN =       6.1795E-02

             OUT:                                     OUT:
             ----                                     ----
             BOUNDARIES =    27722404.0000            BOUNDARIES =       5.5330E-11
          CONSTANT HEAD =           0.0000         CONSTANT HEAD =           0.0000
            ZONE CHANGE =    11440799.0000           ZONE CHANGE =       5.7467E-02
       ZONE CHG TIP/TOE =     1821242.7500      ZONE CHG TIP/TOE =       2.5368E-03
            ZONE MIXING =           0.0000           ZONE MIXING =           0.0000

              TOTAL OUT =    40984448.0000             TOTAL OUT =       6.0004E-02

               IN - OUT =    -7622634.0000              IN - OUT =       1.7905E-03

    PERCENT DISCREPANCY =         -20.51     PERCENT DISCREPANCY =           2.94


 HEAD WILL BE SAVED ON UNIT   37 AT END OF TIME STEP   15, STRESS PERIOD    2

 DRAWDOWN WILL BE SAVED ON UNIT   38 AT END OF TIME STEP   15, STRESS PERIOD    2
1
  VOLUMETRIC BUDGET FOR ENTIRE MODEL AT END OF TIME STEP   15, STRESS PERIOD   2
  ------------------------------------------------------------------------------

     CUMULATIVE VOLUMES      L**3       RATES FOR THIS TIME STEP      L**3/T
     ------------------                 ------------------------

           IN:                                      IN:
           ---                                      ---
             STORAGE =    31167814.0000               STORAGE =       8.6535E-02
       CONSTANT HEAD =           0.0000         CONSTANT HEAD =           0.0000
               WELLS =           0.0000                 WELLS =           0.0000
       RIVER LEAKAGE =   120138272.0000         RIVER LEAKAGE =       4.3000E-02
                  ET =           0.0000                    ET =           0.0000
     HEAD DEP BOUNDS =    12827984.0000       HEAD DEP BOUNDS =       7.7828E-02
            RECHARGE =   467731296.0000              RECHARGE =           0.1965
          SWIADDTOCH =           0.0000            SWIADDTOCH =           0.0000

            TOTAL IN =   631865344.0000              TOTAL IN =           0.4039

          OUT:                                     OUT:
          ----                                     ----
             STORAGE =        5950.0703               STORAGE =       1.8247E-05
       CONSTANT HEAD =           0.0000         CONSTANT HEAD =           0.0000
               WELLS =    92999664.0000                 WELLS =           0.3880
       RIVER LEAKAGE =    21630804.0000         RIVER LEAKAGE =           0.0000
                  ET =   166413648.0000                    ET =           0.0000
     HEAD DEP BOUNDS =   350828160.0000       HEAD DEP BOUNDS =       1.5878E-02
            RECHARGE =           0.0000              RECHARGE =           0.0000
          SWIADDTOCH =           0.0000            SWIADDTOCH =           0.0000

           TOTAL OUT =   631878208.0000             TOTAL OUT =           0.4039

            IN - OUT =      -12864.0000              IN - OUT =       4.2915E-06

 PERCENT DISCREPANCY =          -0.00     PERCENT DISCREPANCY =           0.00






         TIME SUMMARY AT END OF TIME STEP   15 IN STRESS PERIOD    2
                    SECONDS     MINUTES      HOURS       DAYS        YEARS
                    -----------------------------------------------------------
   TIME STEP LENGTH 1.57680E+07 2.62800E+05  4380.0      182.50     0.49966    
 STRESS PERIOD TIME 2.36520E+08 3.94200E+06  65700.      2737.5      7.4949    
         TOTAL TIME 3.39012E+09 5.65020E+07 9.41700E+05  39238.      107.43    
1
 
 SOLVING FOR HEAD 

 CELL CONVERSIONS FOR ITER.=  2  LAYER=  1  STEP= 16  PERIOD=   2   (ROW,COL)
    DRY( 33, 36)   DRY( 45, 30)   
     3 CALLS TO PCG ROUTINE FOR TIME STEP  16 IN STRESS PERIOD    2
    11 TOTAL ITERATIONS

 MAXIMUM HEAD CHANGE FOR EACH ITERATION (1 INDICATES THE FIRST INNER ITERATION):

    HEAD CHANGE    HEAD CHANGE    HEAD CHANGE    HEAD CHANGE    HEAD CHANGE 
   LAYER,ROW,COL  LAYER,ROW,COL  LAYER,ROW,COL  LAYER,ROW,COL  LAYER,ROW,COL
 ---------------------------------------------------------------------------
  1 -0.5012      0  0.1469      0 -0.2790E-01  0 -0.5809E-02  0  0.2546E-02
   (  2, 18,  8)  (  2, 19,  8)  (  2, 20,  9)  (  2, 35,  8)  (  2,  5, 11)
  0  0.8054E-03  1 -0.4806E-01  0 -0.7277E-02  0 -0.1024E-02  0 -0.3534E-03
   (  2,  4, 14)  (  2, 33, 36)  (  2, 33, 36)  (  2, 34, 35)  (  2, 34, 35)
  1 -0.7284E-03
   (  2, 55, 30)

 MAXIMUM RESIDUAL FOR EACH ITERATION (1 INDICATES THE FIRST INNER ITERATION):

    RESIDUAL       RESIDUAL       RESIDUAL       RESIDUAL       RESIDUAL    
   LAYER,ROW,COL  LAYER,ROW,COL  LAYER,ROW,COL  LAYER,ROW,COL  LAYER,ROW,COL
 ---------------------------------------------------------------------------
  1 -0.9703E-03  0 -0.1978E-03  0 -0.4118E-04  0 -0.1343E-04  0  0.4071E-05
   (  2, 18,  8)  (  2, 18,  8)  (  1, 18,  5)  (  2, 17,  6)  (  1, 18,  6)
  0 -0.1448E-05  1  0.4898E-04  0  0.1178E-04  0  0.5003E-05  0  0.1519E-05
   (  2, 20,  6)  (  2, 33, 36)  (  2, 34, 35)  (  2, 34, 35)  (  2, 34, 35)
  1  0.9312E-06
   (  2, 34, 35)



 OUTPUT CONTROL FOR STRESS PERIOD    2   TIME STEP   16
    SAVE HEAD FOR ALL LAYERS
    SAVE DRAWDOWN FOR ALL LAYERS
    SAVE BUDGET
    PRINT BUDGET
 UBDSV1 SAVING "         STORAGE" ON UNIT   9 AT TIME STEP 16, STRESS PERIOD   2
 UBDSV2 SAVING "   CONSTANT HEAD" ON UNIT   9 AT TIME STEP 16, STRESS PERIOD   2
 UBDSV1 SAVING "FLOW RIGHT FACE " ON UNIT   9 AT TIME STEP 16, STRESS PERIOD   2
 UBDSV1 SAVING "FLOW FRONT FACE " ON UNIT   9 AT TIME STEP 16, STRESS PERIOD   2
 UBDSV1 SAVING "FLOW LOWER FACE " ON UNIT   9 AT TIME STEP 16, STRESS PERIOD   2
 UBDSV4 SAVING "           WELLS" ON UNIT   9 AT TIME STEP 16, STRESS PERIOD   2
 UBDSV4 SAVING "   RIVER LEAKAGE" ON UNIT   9 AT TIME STEP 16, STRESS PERIOD   2
 UBDSV3 SAVING "              ET" ON UNIT   9 AT TIME STEP 16, STRESS PERIOD   2
 UBDSV4 SAVING " HEAD DEP BOUNDS" ON UNIT   9 AT TIME STEP 16, STRESS PERIOD   2
 UBDSV3 SAVING "        RECHARGE" ON UNIT   9 AT TIME STEP 16, STRESS PERIOD   2
 SOLVING FOR ZETA FOR LAYER     1 ZONE     2
     2 CALLS TO PCG ROUTINE FOR TIME STEP  16 IN STRESS PERIOD    2
     5 TOTAL ITERATIONS

 MAXIMUM HEAD CHANGE FOR EACH ITERATION (1 INDICATES THE FIRST INNER ITERATION):

    HEAD CHANGE    HEAD CHANGE    HEAD CHANGE    HEAD CHANGE    HEAD CHANGE 
   LAYER,ROW,COL  LAYER,ROW,COL  LAYER,ROW,COL  LAYER,ROW,COL  LAYER,ROW,COL
 ---------------------------------------------------------------------------
  1   13.00      0  0.1468      0  0.2385E-02  0 -0.2063E-04  1 -0.5730E-06
   (  1, 17,  5)  (  1, 19,  4)  (  1, 20,  3)  (  1, 17,  3)  (  1, 16,  4)

 MAXIMUM RESIDUAL FOR EACH ITERATION (1 INDICATES THE FIRST INNER ITERATION):

    RESIDUAL       RESIDUAL       RESIDUAL       RESIDUAL       RESIDUAL    
   LAYER,ROW,COL  LAYER,ROW,COL  LAYER,ROW,COL  LAYER,ROW,COL  LAYER,ROW,COL
 ---------------------------------------------------------------------------
  1 -0.4968E-04  0 -0.7674E-06  0  0.8293E-08  0  0.8242E-10  1 -0.2716E-11
   (  1, 19,  4)  (  1, 20,  3)  (  1, 17,  3)  (  1, 16,  4)  (  1, 19,  4)


 SOLVING FOR ZETA FOR LAYER     2 ZONE     2
     2 CALLS TO PCG ROUTINE FOR TIME STEP  16 IN STRESS PERIOD    2
     5 TOTAL ITERATIONS

 MAXIMUM HEAD CHANGE FOR EACH ITERATION (1 INDICATES THE FIRST INNER ITERATION):

    HEAD CHANGE    HEAD CHANGE    HEAD CHANGE    HEAD CHANGE    HEAD CHANGE 
   LAYER,ROW,COL  LAYER,ROW,COL  LAYER,ROW,COL  LAYER,ROW,COL  LAYER,ROW,COL
 ---------------------------------------------------------------------------
  1   18.05      0  0.1933      0  0.3004E-02  0  0.5709E-04  1 -0.9258E-06
   (  1, 18,  9)  (  1, 18,  7)  (  1, 19,  6)  (  1, 20,  5)  (  1, 19,  8)

 MAXIMUM RESIDUAL FOR EACH ITERATION (1 INDICATES THE FIRST INNER ITERATION):

    RESIDUAL       RESIDUAL       RESIDUAL       RESIDUAL       RESIDUAL    
   LAYER,ROW,COL  LAYER,ROW,COL  LAYER,ROW,COL  LAYER,ROW,COL  LAYER,ROW,COL
 ---------------------------------------------------------------------------
  1 -0.6801E-04  0 -0.1121E-05  0 -0.2049E-07  0 -0.2376E-09  1 -0.4698E-11
   (  1, 18,  7)  (  1, 19,  6)  (  1, 20,  5)  (  1, 19,  6)  (  1, 20,  5)


 UBUDSV SAVING "      ZETASRF  1" ON UNIT170 AT TIME STEP 16, STRESS PERIOD    2


                      VOLUMETRIC SWI ZONE BUDGET FOR ENTIRE MODEL
                     AT END OF TIME STEP   16 IN STRESS PERIOD   2
                                      ZONE     1
  -----------------------------------------------------------------------------------

        CUMULATIVE VOLUMES      L**3       RATES FOR THIS TIME STEP      L**3/T
        ------------------                 ------------------------

              IN:                                      IN:
              ---                                      ---
             BOUNDARIES =   566107584.0000            BOUNDARIES =           0.2384
          CONSTANT HEAD =           0.0000         CONSTANT HEAD =           0.0000
            ZONE CHANGE =   119799968.0000           ZONE CHANGE =           0.1289
       ZONE CHG TIP/TOE =     4235978.0000      ZONE CHG TIP/TOE =       5.9338E-03
            ZONE MIXING =           0.0000           ZONE MIXING =           0.0000

               TOTAL IN =   690143552.0000              TOTAL IN =           0.3732

             OUT:                                     OUT:
             ----                                     ----
             BOUNDARIES =   580084928.0000            BOUNDARIES =           0.3819
          CONSTANT HEAD =           0.0000         CONSTANT HEAD =           0.0000
            ZONE CHANGE =    24023140.0000           ZONE CHANGE =       4.2931E-03
       ZONE CHG TIP/TOE =     4114367.2500      ZONE CHG TIP/TOE =       3.1418E-03
            ZONE MIXING =           0.0000           ZONE MIXING =           0.0000

              TOTAL OUT =   608222464.0000             TOTAL OUT =           0.3893

               IN - OUT =    81921088.0000              IN - OUT =      -1.6100E-02

    PERCENT DISCREPANCY =          12.62     PERCENT DISCREPANCY =          -4.22



                      VOLUMETRIC SWI ZONE BUDGET FOR ENTIRE MODEL
                     AT END OF TIME STEP   16 IN STRESS PERIOD   2
                                      ZONE     2
  -----------------------------------------------------------------------------------

        CUMULATIVE VOLUMES      L**3       RATES FOR THIS TIME STEP      L**3/T
        ------------------                 ------------------------

              IN:                                      IN:
              ---                                      ---
             BOUNDARIES =     9195298.0000            BOUNDARIES =       5.9200E-02
          CONSTANT HEAD =           0.0000         CONSTANT HEAD =           0.0000
            ZONE CHANGE =    20824118.0000           ZONE CHANGE =       4.1154E-03
       ZONE CHG TIP/TOE =     4428858.5000      ZONE CHG TIP/TOE =       5.5871E-03
            ZONE MIXING =           0.0000           ZONE MIXING =           0.0000

               TOTAL IN =    34448272.0000              TOTAL IN =       6.8903E-02

             OUT:                                     OUT:
             ----                                     ----
             BOUNDARIES =    27722404.0000            BOUNDARIES =       6.0031E-11
          CONSTANT HEAD =           0.0000         CONSTANT HEAD =           0.0000
            ZONE CHANGE =    12403466.0000           ZONE CHANGE =       6.1052E-02
       ZONE CHG TIP/TOE =     1911948.8750      ZONE CHG TIP/TOE =       5.7525E-03
            ZONE MIXING =           0.0000           ZONE MIXING =           0.0000

              TOTAL OUT =    42037820.0000             TOTAL OUT =       6.6804E-02

               IN - OUT =    -7589548.0000              IN - OUT =       2.0985E-03

    PERCENT DISCREPANCY =         -19.85     PERCENT DISCREPANCY =           3.09


 HEAD WILL BE SAVED ON UNIT   37 AT END OF TIME STEP   16, STRESS PERIOD    2

 DRAWDOWN WILL BE SAVED ON UNIT   38 AT END OF TIME STEP   16, STRESS PERIOD    2
1
  VOLUMETRIC BUDGET FOR ENTIRE MODEL AT END OF TIME STEP   16, STRESS PERIOD   2
  ------------------------------------------------------------------------------

     CUMULATIVE VOLUMES      L**3       RATES FOR THIS TIME STEP      L**3/T
     ------------------                 ------------------------

           IN:                                      IN:
           ---                                      ---
             STORAGE =    32497226.0000               STORAGE =       8.4311E-02
       CONSTANT HEAD =           0.0000         CONSTANT HEAD =           0.0000
               WELLS =           0.0000                 WELLS =           0.0000
       RIVER LEAKAGE =   120816296.0000         RIVER LEAKAGE =       4.3000E-02
                  ET =           0.0000                    ET =           0.0000
     HEAD DEP BOUNDS =    14085351.0000       HEAD DEP BOUNDS =       7.9742E-02
            RECHARGE =   470824288.0000              RECHARGE =           0.1962
          SWIADDTOCH =           0.0000            SWIADDTOCH =           0.0000

            TOTAL IN =   638223168.0000              TOTAL IN =           0.4032

          OUT:                                     OUT:
          ----                                     ----
             STORAGE =        5961.3770               STORAGE =       7.1706E-07
       CONSTANT HEAD =           0.0000         CONSTANT HEAD =           0.0000
               WELLS =    99117648.0000                 WELLS =           0.3880
       RIVER LEAKAGE =    21630804.0000         RIVER LEAKAGE =           0.0000
                  ET =   166413648.0000                    ET =           0.0000
     HEAD DEP BOUNDS =   351068000.0000       HEAD DEP BOUNDS =       1.5211E-02
            RECHARGE =           0.0000              RECHARGE =           0.0000
          SWIADDTOCH =           0.0000            SWIADDTOCH =           0.0000

           TOTAL OUT =   638236032.0000             TOTAL OUT =           0.4032

            IN - OUT =      -12864.0000              IN - OUT =      -2.6524E-06

 PERCENT DISCREPANCY =          -0.00     PERCENT DISCREPANCY =          -0.00






         TIME SUMMARY AT END OF TIME STEP   16 IN STRESS PERIOD    2
                    SECONDS     MINUTES      HOURS       DAYS        YEARS
                    -----------------------------------------------------------
   TIME STEP LENGTH 1.57680E+07 2.62800E+05  4380.0      182.50     0.49966    
 STRESS PERIOD TIME 2.52288E+08 4.20480E+06  70080.      2920.0      7.9945    
         TOTAL TIME 3.40589E+09 5.67648E+07 9.46080E+05  39420.      107.93    
1
 
 SOLVING FOR HEAD 
     3 CALLS TO PCG ROUTINE FOR TIME STEP  17 IN STRESS PERIOD    2
    10 TOTAL ITERATIONS

 MAXIMUM HEAD CHANGE FOR EACH ITERATION (1 INDICATES THE FIRST INNER ITERATION):

    HEAD CHANGE    HEAD CHANGE    HEAD CHANGE    HEAD CHANGE    HEAD CHANGE 
   LAYER,ROW,COL  LAYER,ROW,COL  LAYER,ROW,COL  LAYER,ROW,COL  LAYER,ROW,COL
 ---------------------------------------------------------------------------
  1 -0.4884      0 -0.1487      0 -0.3681E-01  0  0.7743E-02  0 -0.2453E-02
   (  2, 19,  8)  (  2, 16,  9)  (  2, 19,  9)  (  1, 18,  9)  (  1, 19,  6)
  0 -0.8381E-03  1 -0.1239E-01  0  0.3654E-02  0  0.8530E-03  1 -0.8147E-03
   (  1, 35,  8)  (  2, 18, 11)  (  2, 55, 30)  (  2, 55, 30)  (  2, 55, 30)

 MAXIMUM RESIDUAL FOR EACH ITERATION (1 INDICATES THE FIRST INNER ITERATION):

    RESIDUAL       RESIDUAL       RESIDUAL       RESIDUAL       RESIDUAL    
   LAYER,ROW,COL  LAYER,ROW,COL  LAYER,ROW,COL  LAYER,ROW,COL  LAYER,ROW,COL
 ---------------------------------------------------------------------------
  1 -0.9524E-03  0  0.2667E-03  0 -0.9261E-04  0  0.2002E-04  0  0.6630E-05
   (  2, 20,  8)  (  2, 19,  9)  (  1, 18,  9)  (  2, 18,  8)  (  1, 19,  7)
  0  0.1632E-05  1 -0.1176E-04  0  0.3931E-05  0  0.1049E-05  1  0.5019E-06
   (  1, 19,  7)  (  2, 12, 20)  (  2, 12, 21)  (  2, 12, 21)  (  2, 12, 21)



 OUTPUT CONTROL FOR STRESS PERIOD    2   TIME STEP   17
    SAVE HEAD FOR ALL LAYERS
    SAVE DRAWDOWN FOR ALL LAYERS
    SAVE BUDGET
    PRINT BUDGET
 UBDSV1 SAVING "         STORAGE" ON UNIT   9 AT TIME STEP 17, STRESS PERIOD   2
 UBDSV2 SAVING "   CONSTANT HEAD" ON UNIT   9 AT TIME STEP 17, STRESS PERIOD   2
 UBDSV1 SAVING "FLOW RIGHT FACE " ON UNIT   9 AT TIME STEP 17, STRESS PERIOD   2
 UBDSV1 SAVING "FLOW FRONT FACE " ON UNIT   9 AT TIME STEP 17, STRESS PERIOD   2
 UBDSV1 SAVING "FLOW LOWER FACE " ON UNIT   9 AT TIME STEP 17, STRESS PERIOD   2
 UBDSV4 SAVING "           WELLS" ON UNIT   9 AT TIME STEP 17, STRESS PERIOD   2
 UBDSV4 SAVING "   RIVER LEAKAGE" ON UNIT   9 AT TIME STEP 17, STRESS PERIOD   2
 UBDSV3 SAVING "              ET" ON UNIT   9 AT TIME STEP 17, STRESS PERIOD   2
 UBDSV4 SAVING " HEAD DEP BOUNDS" ON UNIT   9 AT TIME STEP 17, STRESS PERIOD   2
 UBDSV3 SAVING "        RECHARGE" ON UNIT   9 AT TIME STEP 17, STRESS PERIOD   2
 SOLVING FOR ZETA FOR LAYER     1 ZONE     2
     2 CALLS TO PCG ROUTINE FOR TIME STEP  17 IN STRESS PERIOD    2
     5 TOTAL ITERATIONS

 MAXIMUM HEAD CHANGE FOR EACH ITERATION (1 INDICATES THE FIRST INNER ITERATION):

    HEAD CHANGE    HEAD CHANGE    HEAD CHANGE    HEAD CHANGE    HEAD CHANGE 
   LAYER,ROW,COL  LAYER,ROW,COL  LAYER,ROW,COL  LAYER,ROW,COL  LAYER,ROW,COL
 ---------------------------------------------------------------------------
  1   11.85      0  0.1702      0  0.2932E-02  0 -0.2332E-04  1 -0.3598E-06
   (  1, 17,  5)  (  1, 19,  4)  (  1, 20,  3)  (  1, 17,  3)  (  1, 16,  4)

 MAXIMUM RESIDUAL FOR EACH ITERATION (1 INDICATES THE FIRST INNER ITERATION):

    RESIDUAL       RESIDUAL       RESIDUAL       RESIDUAL       RESIDUAL    
   LAYER,ROW,COL  LAYER,ROW,COL  LAYER,ROW,COL  LAYER,ROW,COL  LAYER,ROW,COL
 ---------------------------------------------------------------------------
  1 -0.5918E-04  0 -0.9436E-06  0  0.9428E-08  0  0.1096E-09  1 -0.2424E-11
   (  1, 19,  4)  (  1, 20,  3)  (  1, 17,  3)  (  1, 16,  4)  (  1, 19,  4)


 SOLVING FOR ZETA FOR LAYER     2 ZONE     2
     2 CALLS TO PCG ROUTINE FOR TIME STEP  17 IN STRESS PERIOD    2
     5 TOTAL ITERATIONS

 MAXIMUM HEAD CHANGE FOR EACH ITERATION (1 INDICATES THE FIRST INNER ITERATION):

    HEAD CHANGE    HEAD CHANGE    HEAD CHANGE    HEAD CHANGE    HEAD CHANGE 
   LAYER,ROW,COL  LAYER,ROW,COL  LAYER,ROW,COL  LAYER,ROW,COL  LAYER,ROW,COL
 ---------------------------------------------------------------------------
  1   16.85      0  0.2113      0  0.2210E-02  0  0.3068E-04  1 -0.1031E-05
   (  1, 17,  9)  (  1, 21,  7)  (  1, 18,  6)  (  1, 17,  6)  (  1, 20,  8)

 MAXIMUM RESIDUAL FOR EACH ITERATION (1 INDICATES THE FIRST INNER ITERATION):

    RESIDUAL       RESIDUAL       RESIDUAL       RESIDUAL       RESIDUAL    
   LAYER,ROW,COL  LAYER,ROW,COL  LAYER,ROW,COL  LAYER,ROW,COL  LAYER,ROW,COL
 ---------------------------------------------------------------------------
  1 -0.7901E-04  0 -0.8297E-06  0 -0.1192E-07  0  0.1245E-09  1  0.5583E-11
   (  1, 21,  7)  (  1, 18,  6)  (  1, 17,  6)  (  1, 20,  8)  (  1, 21,  7)


 UBUDSV SAVING "      ZETASRF  1" ON UNIT170 AT TIME STEP 17, STRESS PERIOD    2


                      VOLUMETRIC SWI ZONE BUDGET FOR ENTIRE MODEL
                     AT END OF TIME STEP   17 IN STRESS PERIOD   2
                                      ZONE     1
  -----------------------------------------------------------------------------------

        CUMULATIVE VOLUMES      L**3       RATES FOR THIS TIME STEP      L**3/T
        ------------------                 ------------------------

              IN:                                      IN:
              ---                                      ---
             BOUNDARIES =   569874304.0000            BOUNDARIES =           0.2389
          CONSTANT HEAD =           0.0000         CONSTANT HEAD =           0.0000
            ZONE CHANGE =   121818864.0000           ZONE CHANGE =           0.1280
       ZONE CHG TIP/TOE =     4325937.0000      ZONE CHG TIP/TOE =       5.7052E-03
            ZONE MIXING =           0.0000           ZONE MIXING =           0.0000

               TOTAL IN =   696019072.0000              TOTAL IN =           0.3726

             OUT:                                     OUT:
             ----                                     ----
             BOUNDARIES =   586097536.0000            BOUNDARIES =           0.3813
          CONSTANT HEAD =           0.0000         CONSTANT HEAD =           0.0000
            ZONE CHANGE =    24108816.0000           ZONE CHANGE =       5.4336E-03
       ZONE CHG TIP/TOE =     4141181.7500      ZONE CHG TIP/TOE =       1.7006E-03
            ZONE MIXING =           0.0000           ZONE MIXING =           0.0000

              TOTAL OUT =   614347520.0000             TOTAL OUT =           0.3885

               IN - OUT =    81671552.0000              IN - OUT =      -1.5825E-02

    PERCENT DISCREPANCY =          12.47     PERCENT DISCREPANCY =          -4.16



                      VOLUMETRIC SWI ZONE BUDGET FOR ENTIRE MODEL
                     AT END OF TIME STEP   17 IN STRESS PERIOD   2
                                      ZONE     2
  -----------------------------------------------------------------------------------

        CUMULATIVE VOLUMES      L**3       RATES FOR THIS TIME STEP      L**3/T
        ------------------                 ------------------------

              IN:                                      IN:
              ---                                      ---
             BOUNDARIES =    10155988.0000            BOUNDARIES =       6.0927E-02
          CONSTANT HEAD =           0.0000         CONSTANT HEAD =           0.0000
            ZONE CHANGE =    20909856.0000           ZONE CHANGE =       5.4375E-03
       ZONE CHG TIP/TOE =     4507815.0000      ZONE CHG TIP/TOE =       5.0074E-03
            ZONE MIXING =           0.0000           ZONE MIXING =           0.0000

               TOTAL IN =    35573660.0000              TOTAL IN =       7.1371E-02

             OUT:                                     OUT:
             ----                                     ----
             BOUNDARIES =    27722404.0000            BOUNDARIES =       6.8316E-11
          CONSTANT HEAD =           0.0000         CONSTANT HEAD =           0.0000
            ZONE CHANGE =    13402773.0000           ZONE CHANGE =       6.3376E-02
       ZONE CHG TIP/TOE =     2001908.1250      ZONE CHG TIP/TOE =       5.7052E-03
            ZONE MIXING =           0.0000           ZONE MIXING =           0.0000

              TOTAL OUT =    43127084.0000             TOTAL OUT =       6.9081E-02

               IN - OUT =    -7553424.0000              IN - OUT =       2.2907E-03

    PERCENT DISCREPANCY =         -19.20     PERCENT DISCREPANCY =           3.26


 HEAD WILL BE SAVED ON UNIT   37 AT END OF TIME STEP   17, STRESS PERIOD    2

 DRAWDOWN WILL BE SAVED ON UNIT   38 AT END OF TIME STEP   17, STRESS PERIOD    2
1
  VOLUMETRIC BUDGET FOR ENTIRE MODEL AT END OF TIME STEP   17, STRESS PERIOD   2
  ------------------------------------------------------------------------------

     CUMULATIVE VOLUMES      L**3       RATES FOR THIS TIME STEP      L**3/T
     ------------------                 ------------------------

           IN:                                      IN:
           ---                                      ---
             STORAGE =    33782456.0000               STORAGE =       8.1509E-02
       CONSTANT HEAD =           0.0000         CONSTANT HEAD =           0.0000
               WELLS =           0.0000                 WELLS =           0.0000
       RIVER LEAKAGE =   121494320.0000         RIVER LEAKAGE =       4.3000E-02
                  ET =           0.0000                    ET =           0.0000
     HEAD DEP BOUNDS =    15377736.0000       HEAD DEP BOUNDS =       8.1963E-02
            RECHARGE =   473917280.0000              RECHARGE =           0.1962
          SWIADDTOCH =           0.0000            SWIADDTOCH =           0.0000

            TOTAL IN =   644571776.0000              TOTAL IN =           0.4026

          OUT:                                     OUT:
          ----                                     ----
             STORAGE =        5996.4707               STORAGE =       2.2256E-06
       CONSTANT HEAD =           0.0000         CONSTANT HEAD =           0.0000
               WELLS =   105235632.0000                 WELLS =           0.3880
       RIVER LEAKAGE =    21630804.0000         RIVER LEAKAGE =           0.0000
                  ET =   166413648.0000                    ET =           0.0000
     HEAD DEP BOUNDS =   351298624.0000       HEAD DEP BOUNDS =       1.4626E-02
            RECHARGE =           0.0000              RECHARGE =           0.0000
          SWIADDTOCH =           0.0000            SWIADDTOCH =           0.0000

           TOTAL OUT =   644584704.0000             TOTAL OUT =           0.4026

            IN - OUT =      -12928.0000              IN - OUT =      -1.4901E-07

 PERCENT DISCREPANCY =          -0.00     PERCENT DISCREPANCY =          -0.00






         TIME SUMMARY AT END OF TIME STEP   17 IN STRESS PERIOD    2
                    SECONDS     MINUTES      HOURS       DAYS        YEARS
                    -----------------------------------------------------------
   TIME STEP LENGTH 1.57680E+07 2.62800E+05  4380.0      182.50     0.49966    
 STRESS PERIOD TIME 2.68056E+08 4.46760E+06  74460.      3102.5      8.4942    
         TOTAL TIME 3.42166E+09 5.70276E+07 9.50460E+05  39603.      108.43    
1
 
 SOLVING FOR HEAD 

 CELL CONVERSIONS FOR ITER.=  2  LAYER=  1  STEP= 18  PERIOD=   2   (ROW,COL)
    DRY( 18, 37)   DRY( 22, 39)   DRY( 39, 31)   DRY( 39, 34)   DRY( 42, 32)   

 CELL CONVERSIONS FOR ITER.=  3  LAYER=  1  STEP= 18  PERIOD=   2   (ROW,COL)
    DRY( 44, 32)   
     4 CALLS TO PCG ROUTINE FOR TIME STEP  18 IN STRESS PERIOD    2
    16 TOTAL ITERATIONS

 MAXIMUM HEAD CHANGE FOR EACH ITERATION (1 INDICATES THE FIRST INNER ITERATION):

    HEAD CHANGE    HEAD CHANGE    HEAD CHANGE    HEAD CHANGE    HEAD CHANGE 
   LAYER,ROW,COL  LAYER,ROW,COL  LAYER,ROW,COL  LAYER,ROW,COL  LAYER,ROW,COL
 ---------------------------------------------------------------------------
  1 -0.5132      0  0.1095      0  0.3003E-01  0 -0.9486E-02  0 -0.2094E-02
   (  2, 20,  8)  (  2, 21,  8)  (  1, 18,  9)  (  2, 20,  9)  (  2, 34,  9)
  0 -0.8126E-03  1 -0.8753E-01  0  0.1877E-01  0  0.3628E-02  0  0.8387E-03
   (  1, 35,  8)  (  1, 44, 32)  (  2, 22, 39)  (  2, 39, 34)  (  2, 17, 40)
  1 -0.2317      0 -0.2489E-01  0 -0.6041E-02  0 -0.1107E-02  0 -0.2848E-03
   (  2, 44, 32)  (  2, 43, 34)  (  2, 43, 33)  (  2, 39, 37)  (  2, 52, 27)
  1  0.7335E-03
   (  1, 44, 31)

 MAXIMUM RESIDUAL FOR EACH ITERATION (1 INDICATES THE FIRST INNER ITERATION):

    RESIDUAL       RESIDUAL       RESIDUAL       RESIDUAL       RESIDUAL    
   LAYER,ROW,COL  LAYER,ROW,COL  LAYER,ROW,COL  LAYER,ROW,COL  LAYER,ROW,COL
 ---------------------------------------------------------------------------
  1 -0.6852E-03  0 -0.2009E-03  0  0.7729E-04  0  0.1508E-04  0  0.5128E-05
   (  2, 20,  8)  (  2, 20,  8)  (  2, 20,  9)  (  2, 20,  9)  (  1, 22,  7)
  0  0.1928E-05  1  0.4861E-03  0  0.5248E-04  0  0.1017E-04  0  0.2473E-05
   (  1, 21,  9)  (  1, 44, 32)  (  1, 44, 32)  (  1, 44, 32)  (  1, 44, 32)
  1  0.1383E-03  0  0.4473E-04  0  0.6104E-05  0  0.2401E-05  0  0.1003E-05
   (  2, 44, 32)  (  2, 45, 31)  (  2, 45, 31)  (  2, 42, 34)  (  2, 46, 30)
  1  0.8054E-06
   (  1, 43, 31)



 OUTPUT CONTROL FOR STRESS PERIOD    2   TIME STEP   18
    SAVE HEAD FOR ALL LAYERS
    SAVE DRAWDOWN FOR ALL LAYERS
    SAVE BUDGET
    PRINT BUDGET
 UBDSV1 SAVING "         STORAGE" ON UNIT   9 AT TIME STEP 18, STRESS PERIOD   2
 UBDSV2 SAVING "   CONSTANT HEAD" ON UNIT   9 AT TIME STEP 18, STRESS PERIOD   2
 UBDSV1 SAVING "FLOW RIGHT FACE " ON UNIT   9 AT TIME STEP 18, STRESS PERIOD   2
 UBDSV1 SAVING "FLOW FRONT FACE " ON UNIT   9 AT TIME STEP 18, STRESS PERIOD   2
 UBDSV1 SAVING "FLOW LOWER FACE " ON UNIT   9 AT TIME STEP 18, STRESS PERIOD   2
 UBDSV4 SAVING "           WELLS" ON UNIT   9 AT TIME STEP 18, STRESS PERIOD   2
 UBDSV4 SAVING "   RIVER LEAKAGE" ON UNIT   9 AT TIME STEP 18, STRESS PERIOD   2
 UBDSV3 SAVING "              ET" ON UNIT   9 AT TIME STEP 18, STRESS PERIOD   2
 UBDSV4 SAVING " HEAD DEP BOUNDS" ON UNIT   9 AT TIME STEP 18, STRESS PERIOD   2
 UBDSV3 SAVING "        RECHARGE" ON UNIT   9 AT TIME STEP 18, STRESS PERIOD   2
 SOLVING FOR ZETA FOR LAYER     1 ZONE     2
     2 CALLS TO PCG ROUTINE FOR TIME STEP  18 IN STRESS PERIOD    2
     5 TOTAL ITERATIONS

 MAXIMUM HEAD CHANGE FOR EACH ITERATION (1 INDICATES THE FIRST INNER ITERATION):

    HEAD CHANGE    HEAD CHANGE    HEAD CHANGE    HEAD CHANGE    HEAD CHANGE 
   LAYER,ROW,COL  LAYER,ROW,COL  LAYER,ROW,COL  LAYER,ROW,COL  LAYER,ROW,COL
 ---------------------------------------------------------------------------
  1   11.76      0  0.1210      0  0.1786E-02  0 -0.1625E-04  1 -0.4464E-06
   (  1, 18,  5)  (  1, 21,  4)  (  1, 22,  3)  (  1, 16,  3)  (  1, 15,  4)

 MAXIMUM RESIDUAL FOR EACH ITERATION (1 INDICATES THE FIRST INNER ITERATION):

    RESIDUAL       RESIDUAL       RESIDUAL       RESIDUAL       RESIDUAL    
   LAYER,ROW,COL  LAYER,ROW,COL  LAYER,ROW,COL  LAYER,ROW,COL  LAYER,ROW,COL
 ---------------------------------------------------------------------------
  1 -0.4429E-04  0 -0.6202E-06  0  0.6186E-08  0  0.5387E-10  1 -0.1893E-11
   (  1, 21,  4)  (  1, 22,  3)  (  1, 16,  3)  (  1, 15,  4)  (  1, 21,  4)


 SOLVING FOR ZETA FOR LAYER     2 ZONE     2
     2 CALLS TO PCG ROUTINE FOR TIME STEP  18 IN STRESS PERIOD    2
     5 TOTAL ITERATIONS

 MAXIMUM HEAD CHANGE FOR EACH ITERATION (1 INDICATES THE FIRST INNER ITERATION):

    HEAD CHANGE    HEAD CHANGE    HEAD CHANGE    HEAD CHANGE    HEAD CHANGE 
   LAYER,ROW,COL  LAYER,ROW,COL  LAYER,ROW,COL  LAYER,ROW,COL  LAYER,ROW,COL
 ---------------------------------------------------------------------------
  1   20.83      0  0.9211E-01  0  0.1148E-02  0 -0.1712E-04  1  0.6767E-06
   (  1, 20,  9)  (  1, 15,  5)  (  1, 14,  6)  (  1, 22,  6)  (  1, 17,  9)

 MAXIMUM RESIDUAL FOR EACH ITERATION (1 INDICATES THE FIRST INNER ITERATION):

    RESIDUAL       RESIDUAL       RESIDUAL       RESIDUAL       RESIDUAL    
   LAYER,ROW,COL  LAYER,ROW,COL  LAYER,ROW,COL  LAYER,ROW,COL  LAYER,ROW,COL
 ---------------------------------------------------------------------------
  1 -0.3547E-04  0  0.4251E-06  0  0.6584E-08  0  0.5842E-10  1  0.1522E-11
   (  1, 15,  5)  (  1, 16,  6)  (  1, 22,  6)  (  1, 19, 10)  (  1, 15,  5)


 UBUDSV SAVING "      ZETASRF  1" ON UNIT170 AT TIME STEP 18, STRESS PERIOD    2


                      VOLUMETRIC SWI ZONE BUDGET FOR ENTIRE MODEL
                     AT END OF TIME STEP   18 IN STRESS PERIOD   2
                                      ZONE     1
  -----------------------------------------------------------------------------------

        CUMULATIVE VOLUMES      L**3       RATES FOR THIS TIME STEP      L**3/T
        ------------------                 ------------------------

              IN:                                      IN:
              ---                                      ---
             BOUNDARIES =   573590464.0000            BOUNDARIES =           0.2357
          CONSTANT HEAD =           0.0000         CONSTANT HEAD =           0.0000
            ZONE CHANGE =   123844816.0000           ZONE CHANGE =           0.1285
       ZONE CHG TIP/TOE =     4453539.0000      ZONE CHG TIP/TOE =       8.0925E-03
            ZONE MIXING =           0.0000           ZONE MIXING =           0.0000

               TOTAL IN =   701888832.0000              TOTAL IN =           0.3723

             OUT:                                     OUT:
             ----                                     ----
             BOUNDARIES =   592101696.0000            BOUNDARIES =           0.3808
          CONSTANT HEAD =           0.0000         CONSTANT HEAD =           0.0000
            ZONE CHANGE =    24258848.0000           ZONE CHANGE =       9.5150E-03
       ZONE CHG TIP/TOE =     4188497.7500      ZONE CHG TIP/TOE =       3.0008E-03
            ZONE MIXING =           0.0000           ZONE MIXING =           0.0000

              TOTAL OUT =   620549056.0000             TOTAL OUT =           0.3933

               IN - OUT =    81339776.0000              IN - OUT =      -2.1041E-02

    PERCENT DISCREPANCY =          12.30     PERCENT DISCREPANCY =          -5.50



                      VOLUMETRIC SWI ZONE BUDGET FOR ENTIRE MODEL
                     AT END OF TIME STEP   18 IN STRESS PERIOD   2
                                      ZONE     2
  -----------------------------------------------------------------------------------

        CUMULATIVE VOLUMES      L**3       RATES FOR THIS TIME STEP      L**3/T
        ------------------                 ------------------------

              IN:                                      IN:
              ---                                      ---
             BOUNDARIES =    11156588.0000            BOUNDARIES =       6.3458E-02
          CONSTANT HEAD =           0.0000         CONSTANT HEAD =           0.0000
            ZONE CHANGE =    21058960.0000           ZONE CHANGE =       9.4561E-03
       ZONE CHG TIP/TOE =     4661267.0000      ZONE CHG TIP/TOE =       9.7319E-03
            ZONE MIXING =           0.0000           ZONE MIXING =           0.0000

               TOTAL IN =    36876816.0000              TOTAL IN =       8.2646E-02

             OUT:                                     OUT:
             ----                                     ----
             BOUNDARIES =    27722404.0000            BOUNDARIES =       6.0322E-11
          CONSTANT HEAD =           0.0000         CONSTANT HEAD =           0.0000
            ZONE CHANGE =    14461343.0000           ZONE CHANGE =       6.7134E-02
       ZONE CHG TIP/TOE =     2128522.0000      ZONE CHG TIP/TOE =       8.0298E-03
            ZONE MIXING =           0.0000           ZONE MIXING =           0.0000

              TOTAL OUT =    44312268.0000             TOTAL OUT =       7.5164E-02

               IN - OUT =    -7435452.0000              IN - OUT =       7.4817E-03

    PERCENT DISCREPANCY =         -18.32     PERCENT DISCREPANCY =           9.48


 HEAD WILL BE SAVED ON UNIT   37 AT END OF TIME STEP   18, STRESS PERIOD    2

 DRAWDOWN WILL BE SAVED ON UNIT   38 AT END OF TIME STEP   18, STRESS PERIOD    2
1
  VOLUMETRIC BUDGET FOR ENTIRE MODEL AT END OF TIME STEP   18, STRESS PERIOD   2
  ------------------------------------------------------------------------------

     CUMULATIVE VOLUMES      L**3       RATES FOR THIS TIME STEP      L**3/T
     ------------------                 ------------------------

           IN:                                      IN:
           ---                                      ---
             STORAGE =    35069844.0000               STORAGE =       8.1646E-02
       CONSTANT HEAD =           0.0000         CONSTANT HEAD =           0.0000
               WELLS =           0.0000                 WELLS =           0.0000
       RIVER LEAKAGE =   122156576.0000         RIVER LEAKAGE =       4.2000E-02
                  ET =           0.0000                    ET =           0.0000
     HEAD DEP BOUNDS =    16693266.0000       HEAD DEP BOUNDS =       8.3430E-02
            RECHARGE =   476992288.0000              RECHARGE =           0.1950
          SWIADDTOCH =           0.0000            SWIADDTOCH =           0.0000

            TOTAL IN =   650912000.0000              TOTAL IN =           0.4021

          OUT:                                     OUT:
          ----                                     ----
             STORAGE =        6018.8657               STORAGE =       1.4203E-06
       CONSTANT HEAD =           0.0000         CONSTANT HEAD =           0.0000
               WELLS =   111353616.0000                 WELLS =           0.3880
       RIVER LEAKAGE =    21630804.0000         RIVER LEAKAGE =           0.0000
                  ET =   166413648.0000                    ET =           0.0000
     HEAD DEP BOUNDS =   351520800.0000       HEAD DEP BOUNDS =       1.4091E-02
            RECHARGE =           0.0000              RECHARGE =           0.0000
          SWIADDTOCH =           0.0000            SWIADDTOCH =           0.0000

           TOTAL OUT =   650924928.0000             TOTAL OUT =           0.4021

            IN - OUT =      -12928.0000              IN - OUT =      -1.1325E-06

 PERCENT DISCREPANCY =          -0.00     PERCENT DISCREPANCY =          -0.00






         TIME SUMMARY AT END OF TIME STEP   18 IN STRESS PERIOD    2
                    SECONDS     MINUTES      HOURS       DAYS        YEARS
                    -----------------------------------------------------------
   TIME STEP LENGTH 1.57680E+07 2.62800E+05  4380.0      182.50     0.49966    
 STRESS PERIOD TIME 2.83824E+08 4.73040E+06  78840.      3285.0      8.9938    
         TOTAL TIME 3.43743E+09 5.72904E+07 9.54840E+05  39785.      108.93    
1
 
 SOLVING FOR HEAD 
     4 CALLS TO PCG ROUTINE FOR TIME STEP  19 IN STRESS PERIOD    2
    14 TOTAL ITERATIONS

 MAXIMUM HEAD CHANGE FOR EACH ITERATION (1 INDICATES THE FIRST INNER ITERATION):

    HEAD CHANGE    HEAD CHANGE    HEAD CHANGE    HEAD CHANGE    HEAD CHANGE 
   LAYER,ROW,COL  LAYER,ROW,COL  LAYER,ROW,COL  LAYER,ROW,COL  LAYER,ROW,COL
 ---------------------------------------------------------------------------
  1 -0.5656      0  0.1774      0 -0.4274E-01  0 -0.1084E-01  0 -0.2314E-02
   (  2, 18,  9)  (  2, 19,  9)  (  2, 17,  7)  (  1, 16,  9)  (  1, 18,  6)
  0 -0.7631E-03  1 -0.1169E-01  0  0.5085E-02  0  0.1246E-02  0  0.2952E-03
   (  1, 35,  8)  (  2, 18, 10)  (  2, 55, 30)  (  2, 55, 30)  (  2, 55, 30)
  1 -0.2315E-02  0 -0.1055E-02  0 -0.3125E-03  1  0.5496E-03
   (  2, 55, 30)  (  2, 55, 30)  (  2, 55, 30)  (  2, 55, 30)

 MAXIMUM RESIDUAL FOR EACH ITERATION (1 INDICATES THE FIRST INNER ITERATION):

    RESIDUAL       RESIDUAL       RESIDUAL       RESIDUAL       RESIDUAL    
   LAYER,ROW,COL  LAYER,ROW,COL  LAYER,ROW,COL  LAYER,ROW,COL  LAYER,ROW,COL
 ---------------------------------------------------------------------------
  1 -0.1029E-02  0  0.2873E-03  0 -0.8399E-04  0 -0.2307E-04  0  0.7909E-05
   (  2, 19,  9)  (  2, 18,  8)  (  2, 16,  8)  (  1, 18,  8)  (  1, 18,  7)
  0 -0.2444E-05  1 -0.1112E-04  0  0.3782E-05  0  0.1009E-05  0 -0.3412E-06
   (  1, 16,  9)  (  2, 12, 20)  (  2, 12, 21)  (  2, 12, 21)  (  2, 11, 18)
  1  0.5149E-06  0 -0.2329E-06  0  0.5921E-07  1 -0.6725E-07
   (  2, 55, 30)  (  2, 22, 11)  (  2, 17, 10)  (  2, 55, 30)



 OUTPUT CONTROL FOR STRESS PERIOD    2   TIME STEP   19
    SAVE HEAD FOR ALL LAYERS
    SAVE DRAWDOWN FOR ALL LAYERS
    SAVE BUDGET
    PRINT BUDGET
 UBDSV1 SAVING "         STORAGE" ON UNIT   9 AT TIME STEP 19, STRESS PERIOD   2
 UBDSV2 SAVING "   CONSTANT HEAD" ON UNIT   9 AT TIME STEP 19, STRESS PERIOD   2
 UBDSV1 SAVING "FLOW RIGHT FACE " ON UNIT   9 AT TIME STEP 19, STRESS PERIOD   2
 UBDSV1 SAVING "FLOW FRONT FACE " ON UNIT   9 AT TIME STEP 19, STRESS PERIOD   2
 UBDSV1 SAVING "FLOW LOWER FACE " ON UNIT   9 AT TIME STEP 19, STRESS PERIOD   2
 UBDSV4 SAVING "           WELLS" ON UNIT   9 AT TIME STEP 19, STRESS PERIOD   2
 UBDSV4 SAVING "   RIVER LEAKAGE" ON UNIT   9 AT TIME STEP 19, STRESS PERIOD   2
 UBDSV3 SAVING "              ET" ON UNIT   9 AT TIME STEP 19, STRESS PERIOD   2
 UBDSV4 SAVING " HEAD DEP BOUNDS" ON UNIT   9 AT TIME STEP 19, STRESS PERIOD   2
 UBDSV3 SAVING "        RECHARGE" ON UNIT   9 AT TIME STEP 19, STRESS PERIOD   2
 SOLVING FOR ZETA FOR LAYER     1 ZONE     2
     2 CALLS TO PCG ROUTINE FOR TIME STEP  19 IN STRESS PERIOD    2
     5 TOTAL ITERATIONS

 MAXIMUM HEAD CHANGE FOR EACH ITERATION (1 INDICATES THE FIRST INNER ITERATION):

    HEAD CHANGE    HEAD CHANGE    HEAD CHANGE    HEAD CHANGE    HEAD CHANGE 
   LAYER,ROW,COL  LAYER,ROW,COL  LAYER,ROW,COL  LAYER,ROW,COL  LAYER,ROW,COL
 ---------------------------------------------------------------------------
  1   10.95      0  0.1192      0  0.1847E-02  0  0.2477E-04  1 -0.5686E-06
   (  1, 20,  8)  (  1, 21,  4)  (  1, 20,  5)  (  1, 21,  4)  (  1, 15,  4)

 MAXIMUM RESIDUAL FOR EACH ITERATION (1 INDICATES THE FIRST INNER ITERATION):

    RESIDUAL       RESIDUAL       RESIDUAL       RESIDUAL       RESIDUAL    
   LAYER,ROW,COL  LAYER,ROW,COL  LAYER,ROW,COL  LAYER,ROW,COL  LAYER,ROW,COL
 ---------------------------------------------------------------------------
  1 -0.4410E-04  0 -0.6093E-06  0 -0.9714E-08  0 -0.8096E-10  1 -0.3880E-11
   (  1, 21,  4)  (  1, 22,  3)  (  1, 21,  4)  (  1, 20,  5)  (  1, 21,  4)


 SOLVING FOR ZETA FOR LAYER     2 ZONE     2
     2 CALLS TO PCG ROUTINE FOR TIME STEP  19 IN STRESS PERIOD    2
     5 TOTAL ITERATIONS

 MAXIMUM HEAD CHANGE FOR EACH ITERATION (1 INDICATES THE FIRST INNER ITERATION):

    HEAD CHANGE    HEAD CHANGE    HEAD CHANGE    HEAD CHANGE    HEAD CHANGE 
   LAYER,ROW,COL  LAYER,ROW,COL  LAYER,ROW,COL  LAYER,ROW,COL  LAYER,ROW,COL
 ---------------------------------------------------------------------------
  1   17.02      0  0.1738      0 -0.1086E-02  0 -0.1488E-04  1  0.4659E-06
   (  1, 20,  9)  (  1, 19, 10)  (  1, 16,  6)  (  1, 17,  5)  (  1, 16,  9)

 MAXIMUM RESIDUAL FOR EACH ITERATION (1 INDICATES THE FIRST INNER ITERATION):

    RESIDUAL       RESIDUAL       RESIDUAL       RESIDUAL       RESIDUAL    
   LAYER,ROW,COL  LAYER,ROW,COL  LAYER,ROW,COL  LAYER,ROW,COL  LAYER,ROW,COL
 ---------------------------------------------------------------------------
  1 -0.5043E-04  0  0.3891E-06  0  0.5161E-08  0  0.7090E-10  1 -0.1023E-11
   (  1, 19, 10)  (  1, 16,  6)  (  1, 17,  5)  (  1, 20,  9)  (  1, 22,  5)


 UBUDSV SAVING "      ZETASRF  1" ON UNIT170 AT TIME STEP 19, STRESS PERIOD    2


                      VOLUMETRIC SWI ZONE BUDGET FOR ENTIRE MODEL
                     AT END OF TIME STEP   19 IN STRESS PERIOD   2
                                      ZONE     1
  -----------------------------------------------------------------------------------

        CUMULATIVE VOLUMES      L**3       RATES FOR THIS TIME STEP      L**3/T
        ------------------                 ------------------------

              IN:                                      IN:
              ---                                      ---
             BOUNDARIES =   577262208.0000            BOUNDARIES =           0.2329
          CONSTANT HEAD =           0.0000         CONSTANT HEAD =           0.0000
            ZONE CHANGE =   125886560.0000           ZONE CHANGE =           0.1295
       ZONE CHG TIP/TOE =     4588497.0000      ZONE CHG TIP/TOE =       8.5590E-03
            ZONE MIXING =           0.0000           ZONE MIXING =           0.0000

               TOTAL IN =   707737280.0000              TOTAL IN =           0.3709

             OUT:                                     OUT:
             ----                                     ----
             BOUNDARIES =   598097408.0000            BOUNDARIES =           0.3802
          CONSTANT HEAD =           0.0000         CONSTANT HEAD =           0.0000
            ZONE CHANGE =    24382828.0000           ZONE CHANGE =       7.8628E-03
       ZONE CHG TIP/TOE =     4253155.5000      ZONE CHG TIP/TOE =       4.1006E-03
            ZONE MIXING =           0.0000           ZONE MIXING =           0.0000

              TOTAL OUT =   626733376.0000             TOTAL OUT =           0.3922

               IN - OUT =    81003904.0000              IN - OUT =      -2.1305E-02

    PERCENT DISCREPANCY =          12.14     PERCENT DISCREPANCY =          -5.58



                      VOLUMETRIC SWI ZONE BUDGET FOR ENTIRE MODEL
                     AT END OF TIME STEP   19 IN STRESS PERIOD   2
                                      ZONE     2
  -----------------------------------------------------------------------------------

        CUMULATIVE VOLUMES      L**3       RATES FOR THIS TIME STEP      L**3/T
        ------------------                 ------------------------

              IN:                                      IN:
              ---                                      ---
             BOUNDARIES =    12229220.0000            BOUNDARIES =       6.8026E-02
          CONSTANT HEAD =           0.0000         CONSTANT HEAD =           0.0000
            ZONE CHANGE =    21183002.0000           ZONE CHANGE =       7.8668E-03
       ZONE CHG TIP/TOE =     4768144.5000      ZONE CHG TIP/TOE =       6.7781E-03
            ZONE MIXING =           0.0000           ZONE MIXING =           0.0000

               TOTAL IN =    38180368.0000              TOTAL IN =       8.2671E-02

             OUT:                                     OUT:
             ----                                     ----
             BOUNDARIES =    27722404.0000            BOUNDARIES =       5.4830E-11
          CONSTANT HEAD =           0.0000         CONSTANT HEAD =           0.0000
            ZONE CHANGE =    15501818.0000           ZONE CHANGE =       6.5986E-02
       ZONE CHG TIP/TOE =     2263480.2500      ZONE CHG TIP/TOE =       8.5590E-03
            ZONE MIXING =           0.0000           ZONE MIXING =           0.0000

              TOTAL OUT =    45487704.0000             TOTAL OUT =       7.4545E-02

               IN - OUT =    -7307336.0000              IN - OUT =       8.1253E-03

    PERCENT DISCREPANCY =         -17.47     PERCENT DISCREPANCY =          10.34


 HEAD WILL BE SAVED ON UNIT   37 AT END OF TIME STEP   19, STRESS PERIOD    2

 DRAWDOWN WILL BE SAVED ON UNIT   38 AT END OF TIME STEP   19, STRESS PERIOD    2
1
  VOLUMETRIC BUDGET FOR ENTIRE MODEL AT END OF TIME STEP   19, STRESS PERIOD   2
  ------------------------------------------------------------------------------

     CUMULATIVE VOLUMES      L**3       RATES FOR THIS TIME STEP      L**3/T
     ------------------                 ------------------------

           IN:                                      IN:
           ---                                      ---
             STORAGE =    36321232.0000               STORAGE =       7.9362E-02
       CONSTANT HEAD =           0.0000         CONSTANT HEAD =           0.0000
               WELLS =           0.0000                 WELLS =           0.0000
       RIVER LEAKAGE =   122818832.0000         RIVER LEAKAGE =       4.2000E-02
                  ET =           0.0000                    ET =           0.0000
     HEAD DEP BOUNDS =    18036378.0000       HEAD DEP BOUNDS =       8.5180E-02
            RECHARGE =   480067296.0000              RECHARGE =           0.1950
          SWIADDTOCH =           0.0000            SWIADDTOCH =           0.0000

            TOTAL IN =   657243776.0000              TOTAL IN =           0.4016

          OUT:                                     OUT:
          ----                                     ----
             STORAGE =        6038.0474               STORAGE =       1.2165E-06
       CONSTANT HEAD =           0.0000         CONSTANT HEAD =           0.0000
               WELLS =   117471600.0000                 WELLS =           0.3880
       RIVER LEAKAGE =    21630804.0000         RIVER LEAKAGE =           0.0000
                  ET =   166413648.0000                    ET =           0.0000
     HEAD DEP BOUNDS =   351734560.0000       HEAD DEP BOUNDS =       1.3556E-02
            RECHARGE =           0.0000              RECHARGE =           0.0000
          SWIADDTOCH =           0.0000            SWIADDTOCH =           0.0000

           TOTAL OUT =   657256704.0000             TOTAL OUT =           0.4016

            IN - OUT =      -12928.0000              IN - OUT =      -5.9605E-08

 PERCENT DISCREPANCY =          -0.00     PERCENT DISCREPANCY =          -0.00






         TIME SUMMARY AT END OF TIME STEP   19 IN STRESS PERIOD    2
                    SECONDS     MINUTES      HOURS       DAYS        YEARS
                    -----------------------------------------------------------
   TIME STEP LENGTH 1.57680E+07 2.62800E+05  4380.0      182.50     0.49966    
 STRESS PERIOD TIME 2.99592E+08 4.99320E+06  83220.      3467.5      9.4935    
         TOTAL TIME 3.45319E+09 5.75532E+07 9.59220E+05  39968.      109.43    
1
 
 SOLVING FOR HEAD 

 CELL CONVERSIONS FOR ITER.=  2  LAYER=  1  STEP= 20  PERIOD=   2   (ROW,COL)
    DRY( 23, 42)   DRY( 40, 32)   DRY( 45, 29)   DRY( 46, 25)   DRY( 50, 24)   
     5 CALLS TO PCG ROUTINE FOR TIME STEP  20 IN STRESS PERIOD    2
    16 TOTAL ITERATIONS

 MAXIMUM HEAD CHANGE FOR EACH ITERATION (1 INDICATES THE FIRST INNER ITERATION):

    HEAD CHANGE    HEAD CHANGE    HEAD CHANGE    HEAD CHANGE    HEAD CHANGE 
   LAYER,ROW,COL  LAYER,ROW,COL  LAYER,ROW,COL  LAYER,ROW,COL  LAYER,ROW,COL
 ---------------------------------------------------------------------------
  1 -0.3694      0 -0.1280      0 -0.3485E-01  0 -0.8064E-02  0 -0.2268E-02
   (  2, 20,  9)  (  2, 16,  6)  (  2, 14,  8)  (  2, 21,  9)  (  2, 34,  9)
  0 -0.8748E-03  1 -0.7812E-01  0 -0.9441E-02  0 -0.2545E-02  0 -0.6070E-03
   (  1, 35,  8)  (  2, 50, 24)  (  2, 48, 25)  (  2, 49, 25)  (  2, 44, 28)
  1 -0.3349E-02  0 -0.1437E-02  0 -0.4263E-03  1  0.1063E-02  0  0.1851E-03
   (  2, 55, 30)  (  2, 55, 30)  (  2, 55, 30)  (  2, 55, 30)  (  2, 55, 30)
  1 -0.1967E-03
   (  2, 55, 30)

 MAXIMUM RESIDUAL FOR EACH ITERATION (1 INDICATES THE FIRST INNER ITERATION):

    RESIDUAL       RESIDUAL       RESIDUAL       RESIDUAL       RESIDUAL    
   LAYER,ROW,COL  LAYER,ROW,COL  LAYER,ROW,COL  LAYER,ROW,COL  LAYER,ROW,COL
 ---------------------------------------------------------------------------
  1  0.8619E-03  0  0.2318E-03  0  0.6172E-04  0 -0.1680E-04  0 -0.5058E-05
   (  2, 16,  5)  (  2, 18,  9)  (  2, 18,  9)  (  1, 18,  8)  (  2, 16,  5)
  0  0.1708E-05  1  0.4019E-04  0  0.1592E-04  0  0.3701E-05  0  0.1020E-05
   (  1, 19,  9)  (  2, 49, 25)  (  2, 49, 25)  (  2, 49, 25)  (  2, 48, 26)
  1  0.6774E-06  0 -0.2704E-06  0  0.5884E-07  1 -0.7823E-07  0  0.4208E-07
   (  2, 55, 30)  (  2, 22, 11)  (  2, 17, 10)  (  2, 55, 30)  (  2, 53, 31)
  1  0.3078E-07
   (  2, 55, 30)



 OUTPUT CONTROL FOR STRESS PERIOD    2   TIME STEP   20
    SAVE HEAD FOR ALL LAYERS
    SAVE DRAWDOWN FOR ALL LAYERS
    SAVE BUDGET
    PRINT BUDGET
 UBDSV1 SAVING "         STORAGE" ON UNIT   9 AT TIME STEP 20, STRESS PERIOD   2
 UBDSV2 SAVING "   CONSTANT HEAD" ON UNIT   9 AT TIME STEP 20, STRESS PERIOD   2
 UBDSV1 SAVING "FLOW RIGHT FACE " ON UNIT   9 AT TIME STEP 20, STRESS PERIOD   2
 UBDSV1 SAVING "FLOW FRONT FACE " ON UNIT   9 AT TIME STEP 20, STRESS PERIOD   2
 UBDSV1 SAVING "FLOW LOWER FACE " ON UNIT   9 AT TIME STEP 20, STRESS PERIOD   2
 UBDSV4 SAVING "           WELLS" ON UNIT   9 AT TIME STEP 20, STRESS PERIOD   2
 UBDSV4 SAVING "   RIVER LEAKAGE" ON UNIT   9 AT TIME STEP 20, STRESS PERIOD   2
 UBDSV3 SAVING "              ET" ON UNIT   9 AT TIME STEP 20, STRESS PERIOD   2
 UBDSV4 SAVING " HEAD DEP BOUNDS" ON UNIT   9 AT TIME STEP 20, STRESS PERIOD   2
 UBDSV3 SAVING "        RECHARGE" ON UNIT   9 AT TIME STEP 20, STRESS PERIOD   2
 SOLVING FOR ZETA FOR LAYER     1 ZONE     2
     2 CALLS TO PCG ROUTINE FOR TIME STEP  20 IN STRESS PERIOD    2
     5 TOTAL ITERATIONS

 MAXIMUM HEAD CHANGE FOR EACH ITERATION (1 INDICATES THE FIRST INNER ITERATION):

    HEAD CHANGE    HEAD CHANGE    HEAD CHANGE    HEAD CHANGE    HEAD CHANGE 
   LAYER,ROW,COL  LAYER,ROW,COL  LAYER,ROW,COL  LAYER,ROW,COL  LAYER,ROW,COL
 ---------------------------------------------------------------------------
  1   14.94      0  0.8923E-01  0  0.1146E-02  0 -0.1418E-04  1  0.6316E-06
   (  1, 18,  9)  (  1, 16,  3)  (  1, 23,  3)  (  1, 19,  8)  (  1, 18,  9)

 MAXIMUM RESIDUAL FOR EACH ITERATION (1 INDICATES THE FIRST INNER ITERATION):

    RESIDUAL       RESIDUAL       RESIDUAL       RESIDUAL       RESIDUAL    
   LAYER,ROW,COL  LAYER,ROW,COL  LAYER,ROW,COL  LAYER,ROW,COL  LAYER,ROW,COL
 ---------------------------------------------------------------------------
  1 -0.3135E-04  0 -0.3922E-06  0  0.4395E-08  0 -0.5320E-10  1  0.1860E-11
   (  1, 22,  4)  (  1, 23,  3)  (  1, 19,  8)  (  1, 16,  4)  (  1, 15,  3)


 SOLVING FOR ZETA FOR LAYER     2 ZONE     2
     2 CALLS TO PCG ROUTINE FOR TIME STEP  20 IN STRESS PERIOD    2
     5 TOTAL ITERATIONS

 MAXIMUM HEAD CHANGE FOR EACH ITERATION (1 INDICATES THE FIRST INNER ITERATION):

    HEAD CHANGE    HEAD CHANGE    HEAD CHANGE    HEAD CHANGE    HEAD CHANGE 
   LAYER,ROW,COL  LAYER,ROW,COL  LAYER,ROW,COL  LAYER,ROW,COL  LAYER,ROW,COL
 ---------------------------------------------------------------------------
  1   11.61      0  0.1629      0  0.2523E-02  0  0.2137E-04  1 -0.4243E-06
   (  1, 16,  9)  (  1, 21,  8)  (  1, 20,  9)  (  1, 20, 10)  (  1, 13,  6)

 MAXIMUM RESIDUAL FOR EACH ITERATION (1 INDICATES THE FIRST INNER ITERATION):

    RESIDUAL       RESIDUAL       RESIDUAL       RESIDUAL       RESIDUAL    
   LAYER,ROW,COL  LAYER,ROW,COL  LAYER,ROW,COL  LAYER,ROW,COL  LAYER,ROW,COL
 ---------------------------------------------------------------------------
  1 -0.4986E-04  0 -0.1025E-05  0 -0.7525E-08  0 -0.1085E-09  1 -0.3256E-11
   (  1, 21,  8)  (  1, 20,  9)  (  1, 23,  6)  (  1, 24,  5)  (  1, 23,  6)


 UBUDSV SAVING "      ZETASRF  1" ON UNIT170 AT TIME STEP 20, STRESS PERIOD    2


                      VOLUMETRIC SWI ZONE BUDGET FOR ENTIRE MODEL
                     AT END OF TIME STEP   20 IN STRESS PERIOD   2
                                      ZONE     1
  -----------------------------------------------------------------------------------

        CUMULATIVE VOLUMES      L**3       RATES FOR THIS TIME STEP      L**3/T
        ------------------                 ------------------------

              IN:                                      IN:
              ---                                      ---
             BOUNDARIES =   580882688.0000            BOUNDARIES =           0.2296
          CONSTANT HEAD =           0.0000         CONSTANT HEAD =           0.0000
            ZONE CHANGE =   127937920.0000           ZONE CHANGE =           0.1301
       ZONE CHG TIP/TOE =     4613705.0000      ZONE CHG TIP/TOE =       1.5987E-03
            ZONE MIXING =           0.0000           ZONE MIXING =           0.0000

               TOTAL IN =   713434304.0000              TOTAL IN =           0.3613

             OUT:                                     OUT:
             ----                                     ----
             BOUNDARIES =   604085568.0000            BOUNDARIES =           0.3798
          CONSTANT HEAD =           0.0000         CONSTANT HEAD =           0.0000
            ZONE CHANGE =    24461616.0000           ZONE CHANGE =       4.9968E-03
       ZONE CHG TIP/TOE =     4280405.5000      ZONE CHG TIP/TOE =       1.7282E-03
            ZONE MIXING =           0.0000           ZONE MIXING =           0.0000

              TOTAL OUT =   632827584.0000             TOTAL OUT =           0.3865

               IN - OUT =    80606720.0000              IN - OUT =      -2.5189E-02

    PERCENT DISCREPANCY =          11.97     PERCENT DISCREPANCY =          -6.74



                      VOLUMETRIC SWI ZONE BUDGET FOR ENTIRE MODEL
                     AT END OF TIME STEP   20 IN STRESS PERIOD   2
                                      ZONE     2
  -----------------------------------------------------------------------------------

        CUMULATIVE VOLUMES      L**3       RATES FOR THIS TIME STEP      L**3/T
        ------------------                 ------------------------

              IN:                                      IN:
              ---                                      ---
             BOUNDARIES =    13360796.0000            BOUNDARIES =       7.1764E-02
          CONSTANT HEAD =           0.0000         CONSTANT HEAD =           0.0000
            ZONE CHANGE =    21262270.0000           ZONE CHANGE =       5.0271E-03
       ZONE CHG TIP/TOE =     4938001.0000      ZONE CHG TIP/TOE =       1.0772E-02
            ZONE MIXING =           0.0000           ZONE MIXING =           0.0000

               TOTAL IN =    39561068.0000              TOTAL IN =       8.7563E-02

             OUT:                                     OUT:
             ----                                     ----
             BOUNDARIES =    27722404.0000            BOUNDARIES =       6.3158E-11
          CONSTANT HEAD =           0.0000         CONSTANT HEAD =           0.0000
            ZONE CHANGE =    16665431.0000           ZONE CHANGE =       7.3796E-02
       ZONE CHG TIP/TOE =     2288688.2500      ZONE CHG TIP/TOE =       1.5987E-03
            ZONE MIXING =           0.0000           ZONE MIXING =           0.0000

              TOTAL OUT =    46676524.0000             TOTAL OUT =       7.5395E-02

               IN - OUT =    -7115456.0000              IN - OUT =       1.2169E-02

    PERCENT DISCREPANCY =         -16.50     PERCENT DISCREPANCY =          14.94


 HEAD WILL BE SAVED ON UNIT   37 AT END OF TIME STEP   20, STRESS PERIOD    2

 DRAWDOWN WILL BE SAVED ON UNIT   38 AT END OF TIME STEP   20, STRESS PERIOD    2
1
  VOLUMETRIC BUDGET FOR ENTIRE MODEL AT END OF TIME STEP   20, STRESS PERIOD   2
  ------------------------------------------------------------------------------

     CUMULATIVE VOLUMES      L**3       RATES FOR THIS TIME STEP      L**3/T
     ------------------                 ------------------------

           IN:                                      IN:
           ---                                      ---
             STORAGE =    37557544.0000               STORAGE =       7.8407E-02
       CONSTANT HEAD =           0.0000         CONSTANT HEAD =           0.0000
               WELLS =           0.0000                 WELLS =           0.0000
       RIVER LEAKAGE =   123481088.0000         RIVER LEAKAGE =       4.2000E-02
                  ET =           0.0000                    ET =           0.0000
     HEAD DEP BOUNDS =    19402146.0000       HEAD DEP BOUNDS =       8.6616E-02
            RECHARGE =   483127296.0000              RECHARGE =           0.1941
          SWIADDTOCH =           0.0000            SWIADDTOCH =           0.0000

            TOTAL IN =   663568064.0000              TOTAL IN =           0.4011

          OUT:                                     OUT:
          ----                                     ----
             STORAGE =        6221.3267               STORAGE =       1.1623E-05
       CONSTANT HEAD =           0.0000         CONSTANT HEAD =           0.0000
               WELLS =   123589584.0000                 WELLS =           0.3880
       RIVER LEAKAGE =    21630804.0000         RIVER LEAKAGE =           0.0000
                  ET =   166413648.0000                    ET =           0.0000
     HEAD DEP BOUNDS =   351940736.0000       HEAD DEP BOUNDS =       1.3075E-02
            RECHARGE =           0.0000              RECHARGE =           0.0000
          SWIADDTOCH =           0.0000            SWIADDTOCH =           0.0000

           TOTAL OUT =   663580992.0000             TOTAL OUT =           0.4011

            IN - OUT =      -12928.0000              IN - OUT =      -1.1921E-07

 PERCENT DISCREPANCY =          -0.00     PERCENT DISCREPANCY =          -0.00






         TIME SUMMARY AT END OF TIME STEP   20 IN STRESS PERIOD    2
                    SECONDS     MINUTES      HOURS       DAYS        YEARS
                    -----------------------------------------------------------
   TIME STEP LENGTH 1.57680E+07 2.62800E+05  4380.0      182.50     0.49966    
 STRESS PERIOD TIME 3.15360E+08 5.25600E+06  87600.      3650.0      9.9932    
         TOTAL TIME 3.46896E+09 5.78160E+07 9.63600E+05  40150.      109.92    
1
 
 SOLVING FOR HEAD 
     5 CALLS TO PCG ROUTINE FOR TIME STEP  21 IN STRESS PERIOD    2
    16 TOTAL ITERATIONS

 MAXIMUM HEAD CHANGE FOR EACH ITERATION (1 INDICATES THE FIRST INNER ITERATION):

    HEAD CHANGE    HEAD CHANGE    HEAD CHANGE    HEAD CHANGE    HEAD CHANGE 
   LAYER,ROW,COL  LAYER,ROW,COL  LAYER,ROW,COL  LAYER,ROW,COL  LAYER,ROW,COL
 ---------------------------------------------------------------------------
  1 -0.4652      0  0.1546      0 -0.2840E-01  0 -0.6495E-02  0 -0.2269E-02
   (  2, 20,  9)  (  2, 20,  9)  (  2, 20, 10)  (  1, 35,  8)  (  2, 34,  9)
  0 -0.8666E-03  1  0.1577E-01  0  0.6070E-02  0  0.1549E-02  0  0.4040E-03
   (  1, 35,  8)  (  2, 18, 44)  (  2, 18, 44)  (  2, 55, 30)  (  2, 55, 30)
  1 -0.5406E-02  0 -0.1357E-02  0 -0.2956E-03  1  0.1985E-02  0  0.1539E-03
   (  2, 55, 30)  (  2, 55, 30)  (  2, 55, 30)  (  2, 55, 30)  (  2, 55, 30)
  1 -0.5034E-03
   (  2, 55, 30)

 MAXIMUM RESIDUAL FOR EACH ITERATION (1 INDICATES THE FIRST INNER ITERATION):

    RESIDUAL       RESIDUAL       RESIDUAL       RESIDUAL       RESIDUAL    
   LAYER,ROW,COL  LAYER,ROW,COL  LAYER,ROW,COL  LAYER,ROW,COL  LAYER,ROW,COL
 ---------------------------------------------------------------------------
  1 -0.1081E-02  0  0.1631E-03  0  0.5280E-04  0  0.1472E-04  0  0.3555E-05
   (  2, 20,  9)  (  2, 20, 10)  (  2, 18,  9)  (  2, 18,  9)  (  1, 17,  7)
  0 -0.1006E-05  1 -0.9771E-05  0  0.3769E-05  0  0.1012E-05  0  0.2963E-06
   (  2, 18,  8)  (  2, 11, 21)  (  2, 12, 21)  (  2, 12, 21)  (  2, 11, 22)
  1 -0.7268E-06  0 -0.2474E-06  0  0.5525E-07  1  0.1249E-06  0 -0.5829E-07
   (  2, 18, 11)  (  2, 20,  9)  (  2, 19, 43)  (  2, 53, 31)  (  2, 54, 30)
  1  0.4402E-07
   (  2,  5, 11)



 OUTPUT CONTROL FOR STRESS PERIOD    2   TIME STEP   21
    SAVE HEAD FOR ALL LAYERS
    SAVE DRAWDOWN FOR ALL LAYERS
    SAVE BUDGET
    PRINT BUDGET
 UBDSV1 SAVING "         STORAGE" ON UNIT   9 AT TIME STEP 21, STRESS PERIOD   2
 UBDSV2 SAVING "   CONSTANT HEAD" ON UNIT   9 AT TIME STEP 21, STRESS PERIOD   2
 UBDSV1 SAVING "FLOW RIGHT FACE " ON UNIT   9 AT TIME STEP 21, STRESS PERIOD   2
 UBDSV1 SAVING "FLOW FRONT FACE " ON UNIT   9 AT TIME STEP 21, STRESS PERIOD   2
 UBDSV1 SAVING "FLOW LOWER FACE " ON UNIT   9 AT TIME STEP 21, STRESS PERIOD   2
 UBDSV4 SAVING "           WELLS" ON UNIT   9 AT TIME STEP 21, STRESS PERIOD   2
 UBDSV4 SAVING "   RIVER LEAKAGE" ON UNIT   9 AT TIME STEP 21, STRESS PERIOD   2
 UBDSV3 SAVING "              ET" ON UNIT   9 AT TIME STEP 21, STRESS PERIOD   2
 UBDSV4 SAVING " HEAD DEP BOUNDS" ON UNIT   9 AT TIME STEP 21, STRESS PERIOD   2
 UBDSV3 SAVING "        RECHARGE" ON UNIT   9 AT TIME STEP 21, STRESS PERIOD   2
 SOLVING FOR ZETA FOR LAYER     1 ZONE     2
     2 CALLS TO PCG ROUTINE FOR TIME STEP  21 IN STRESS PERIOD    2
     5 TOTAL ITERATIONS

 MAXIMUM HEAD CHANGE FOR EACH ITERATION (1 INDICATES THE FIRST INNER ITERATION):

    HEAD CHANGE    HEAD CHANGE    HEAD CHANGE    HEAD CHANGE    HEAD CHANGE 
   LAYER,ROW,COL  LAYER,ROW,COL  LAYER,ROW,COL  LAYER,ROW,COL  LAYER,ROW,COL
 ---------------------------------------------------------------------------
  1   16.24      0  0.8821E-01  0  0.1176E-02  0  0.1112E-04  1 -0.7760E-06
   (  1, 18,  9)  (  1, 15,  3)  (  1, 14,  4)  (  1, 22,  4)  (  1, 18,  9)

 MAXIMUM RESIDUAL FOR EACH ITERATION (1 INDICATES THE FIRST INNER ITERATION):

    RESIDUAL       RESIDUAL       RESIDUAL       RESIDUAL       RESIDUAL    
   LAYER,ROW,COL  LAYER,ROW,COL  LAYER,ROW,COL  LAYER,ROW,COL  LAYER,ROW,COL
 ---------------------------------------------------------------------------
  1 -0.2716E-04  0 -0.3697E-06  0 -0.3839E-08  0  0.4007E-10  1 -0.1531E-11
   (  1, 15,  3)  (  1, 14,  4)  (  1, 22,  4)  (  1, 14,  4)  (  1, 22,  4)


 SOLVING FOR ZETA FOR LAYER     2 ZONE     2
     2 CALLS TO PCG ROUTINE FOR TIME STEP  21 IN STRESS PERIOD    2
     5 TOTAL ITERATIONS

 MAXIMUM HEAD CHANGE FOR EACH ITERATION (1 INDICATES THE FIRST INNER ITERATION):

    HEAD CHANGE    HEAD CHANGE    HEAD CHANGE    HEAD CHANGE    HEAD CHANGE 
   LAYER,ROW,COL  LAYER,ROW,COL  LAYER,ROW,COL  LAYER,ROW,COL  LAYER,ROW,COL
 ---------------------------------------------------------------------------
  1  -11.95      0  0.8824E-01  0  0.1274E-02  0  0.1455E-04  1  0.2068E-06
   (  1, 21,  9)  (  1, 14,  5)  (  1, 16,  5)  (  1, 23,  6)  (  1,  9,  5)

 MAXIMUM RESIDUAL FOR EACH ITERATION (1 INDICATES THE FIRST INNER ITERATION):

    RESIDUAL       RESIDUAL       RESIDUAL       RESIDUAL       RESIDUAL    
   LAYER,ROW,COL  LAYER,ROW,COL  LAYER,ROW,COL  LAYER,ROW,COL  LAYER,ROW,COL
 ---------------------------------------------------------------------------
  1 -0.2956E-04  0 -0.4152E-06  0 -0.5563E-08  0 -0.4826E-10  1 -0.1252E-11
   (  1, 14,  5)  (  1, 16,  5)  (  1, 23,  6)  (  1, 24,  5)  (  1, 22,  6)


 UBUDSV SAVING "      ZETASRF  1" ON UNIT170 AT TIME STEP 21, STRESS PERIOD    2


                      VOLUMETRIC SWI ZONE BUDGET FOR ENTIRE MODEL
                     AT END OF TIME STEP   21 IN STRESS PERIOD   2
                                      ZONE     1
  -----------------------------------------------------------------------------------

        CUMULATIVE VOLUMES      L**3       RATES FOR THIS TIME STEP      L**3/T
        ------------------                 ------------------------

              IN:                                      IN:
              ---                                      ---
             BOUNDARIES =   584488320.0000            BOUNDARIES =           0.2287
          CONSTANT HEAD =           0.0000         CONSTANT HEAD =           0.0000
            ZONE CHANGE =   129845032.0000           ZONE CHANGE =           0.1209
       ZONE CHG TIP/TOE =     4825657.0000      ZONE CHG TIP/TOE =       1.3442E-02
            ZONE MIXING =           0.0000           ZONE MIXING =           0.0000

               TOTAL IN =   719159040.0000              TOTAL IN =           0.3631

             OUT:                                     OUT:
             ----                                     ----
             BOUNDARIES =   609915072.0000            BOUNDARIES =           0.3697
          CONSTANT HEAD =           0.0000         CONSTANT HEAD =           0.0000
            ZONE CHANGE =    24575976.0000           ZONE CHANGE =       7.2527E-03
       ZONE CHG TIP/TOE =     4347619.0000      ZONE CHG TIP/TOE =       4.2627E-03
            ZONE MIXING =           0.0000           ZONE MIXING =           0.0000

              TOTAL OUT =   638838656.0000             TOTAL OUT =           0.3812

               IN - OUT =    80320384.0000              IN - OUT =      -1.8162E-02

    PERCENT DISCREPANCY =          11.83     PERCENT DISCREPANCY =          -4.88



                      VOLUMETRIC SWI ZONE BUDGET FOR ENTIRE MODEL
                     AT END OF TIME STEP   21 IN STRESS PERIOD   2
                                      ZONE     2
  -----------------------------------------------------------------------------------

        CUMULATIVE VOLUMES      L**3       RATES FOR THIS TIME STEP      L**3/T
        ------------------                 ------------------------

              IN:                                      IN:
              ---                                      ---
             BOUNDARIES =    14530640.0000            BOUNDARIES =       7.4191E-02
          CONSTANT HEAD =           0.0000         CONSTANT HEAD =           0.0000
            ZONE CHANGE =    21372624.0000           ZONE CHANGE =       6.9986E-03
       ZONE CHG TIP/TOE =     5147332.0000      ZONE CHG TIP/TOE =       1.3276E-02
            ZONE MIXING =           0.0000           ZONE MIXING =           0.0000

               TOTAL IN =    41050596.0000              TOTAL IN =       9.4465E-02

             OUT:                                     OUT:
             ----                                     ----
             BOUNDARIES =    27874084.0000            BOUNDARIES =       9.6195E-03
          CONSTANT HEAD =           0.0000         CONSTANT HEAD =           0.0000
            ZONE CHANGE =    17710306.0000           ZONE CHANGE =       6.6266E-02
       ZONE CHG TIP/TOE =     2495542.0000      ZONE CHG TIP/TOE =       1.3119E-02
            ZONE MIXING =           0.0000           ZONE MIXING =           0.0000

              TOTAL OUT =    48079932.0000             TOTAL OUT =       8.9004E-02

               IN - OUT =    -7029336.0000              IN - OUT =       5.4617E-03

    PERCENT DISCREPANCY =         -15.77     PERCENT DISCREPANCY =           5.95


 HEAD WILL BE SAVED ON UNIT   37 AT END OF TIME STEP   21, STRESS PERIOD    2

 DRAWDOWN WILL BE SAVED ON UNIT   38 AT END OF TIME STEP   21, STRESS PERIOD    2
1
  VOLUMETRIC BUDGET FOR ENTIRE MODEL AT END OF TIME STEP   21, STRESS PERIOD   2
  ------------------------------------------------------------------------------

     CUMULATIVE VOLUMES      L**3       RATES FOR THIS TIME STEP      L**3/T
     ------------------                 ------------------------

           IN:                                      IN:
           ---                                      ---
             STORAGE =    38763332.0000               STORAGE =       7.6470E-02
       CONSTANT HEAD =           0.0000         CONSTANT HEAD =           0.0000
               WELLS =           0.0000                 WELLS =           0.0000
       RIVER LEAKAGE =   124143344.0000         RIVER LEAKAGE =       4.2000E-02
                  ET =           0.0000                    ET =           0.0000
     HEAD DEP BOUNDS =    20791346.0000       HEAD DEP BOUNDS =       8.8103E-02
            RECHARGE =   486187296.0000              RECHARGE =           0.1941
          SWIADDTOCH =           0.0000            SWIADDTOCH =           0.0000

            TOTAL IN =   669885312.0000              TOTAL IN =           0.4006

          OUT:                                     OUT:
          ----                                     ----
             STORAGE =        6306.1553               STORAGE =       5.3798E-06
       CONSTANT HEAD =           0.0000         CONSTANT HEAD =           0.0000
               WELLS =   129707568.0000                 WELLS =           0.3880
       RIVER LEAKAGE =    21630804.0000         RIVER LEAKAGE =           0.0000
                  ET =   166413648.0000                    ET =           0.0000
     HEAD DEP BOUNDS =   352139904.0000       HEAD DEP BOUNDS =       1.2632E-02
            RECHARGE =           0.0000              RECHARGE =           0.0000
          SWIADDTOCH =           0.0000            SWIADDTOCH =           0.0000

           TOTAL OUT =   669898240.0000             TOTAL OUT =           0.4006

            IN - OUT =      -12928.0000              IN - OUT =      -8.9407E-08

 PERCENT DISCREPANCY =          -0.00     PERCENT DISCREPANCY =          -0.00






         TIME SUMMARY AT END OF TIME STEP   21 IN STRESS PERIOD    2
                    SECONDS     MINUTES      HOURS       DAYS        YEARS
                    -----------------------------------------------------------
   TIME STEP LENGTH 1.57680E+07 2.62800E+05  4380.0      182.50     0.49966    
 STRESS PERIOD TIME 3.31128E+08 5.51880E+06  91980.      3832.5      10.493    
         TOTAL TIME 3.48473E+09 5.80788E+07 9.67980E+05  40333.      110.42    
1
 
 SOLVING FOR HEAD 

 CELL CONVERSIONS FOR ITER.=  2  LAYER=  1  STEP= 22  PERIOD=   2   (ROW,COL)
    DRY( 15, 36)   
     6 CALLS TO PCG ROUTINE FOR TIME STEP  22 IN STRESS PERIOD    2
    18 TOTAL ITERATIONS

 MAXIMUM HEAD CHANGE FOR EACH ITERATION (1 INDICATES THE FIRST INNER ITERATION):

    HEAD CHANGE    HEAD CHANGE    HEAD CHANGE    HEAD CHANGE    HEAD CHANGE 
   LAYER,ROW,COL  LAYER,ROW,COL  LAYER,ROW,COL  LAYER,ROW,COL  LAYER,ROW,COL
 ---------------------------------------------------------------------------
  1 -0.2693      0 -0.9169E-01  0  0.3271E-01  0 -0.7685E-02  0 -0.1764E-02
   (  1, 18,  6)  (  2, 20,  9)  (  1, 20,  9)  (  2, 22, 11)  (  2,  7, 11)
  0  0.6496E-03  1 -0.6763E-01  0 -0.7016E-02  0  0.1650E-02  0  0.5657E-03
   (  2, 18,  7)  (  2, 15, 36)  (  2, 15, 36)  (  2, 55, 30)  (  2, 55, 30)
  1 -0.7102E-02  0 -0.1539E-02  0 -0.3408E-03  1  0.3110E-02  0  0.2088E-03
   (  2, 55, 30)  (  2, 55, 30)  (  2, 55, 30)  (  2, 55, 30)  (  2, 55, 30)
  1 -0.1005E-02  0 -0.1494E-03  1  0.2986E-03
   (  2, 55, 30)  (  2, 55, 30)  (  2, 55, 30)

 MAXIMUM RESIDUAL FOR EACH ITERATION (1 INDICATES THE FIRST INNER ITERATION):

    RESIDUAL       RESIDUAL       RESIDUAL       RESIDUAL       RESIDUAL    
   LAYER,ROW,COL  LAYER,ROW,COL  LAYER,ROW,COL  LAYER,ROW,COL  LAYER,ROW,COL
 ---------------------------------------------------------------------------
  1  0.7588E-03  0 -0.2292E-03  0 -0.6908E-04  0  0.2077E-04  0 -0.6505E-05
   (  2, 17,  9)  (  1, 20,  9)  (  1, 20,  9)  (  2, 19,  6)  (  2, 19,  8)
  0 -0.2157E-05  1  0.3944E-04  0  0.1815E-04  0  0.4815E-05  0 -0.1112E-05
   (  2, 19,  8)  (  2, 16, 35)  (  2, 16, 35)  (  2, 16, 35)  (  2, 17, 35)
  1 -0.7935E-06  0 -0.3143E-06  0  0.7072E-07  1  0.1895E-06  0 -0.8958E-07
   (  2, 18, 11)  (  2, 20,  9)  (  2, 19, 43)  (  2, 53, 31)  (  2, 54, 30)
  1 -0.8222E-07  0 -0.5317E-07  1  0.2972E-07
   (  2, 53, 31)  (  2, 53, 31)  (  2, 53, 31)



 OUTPUT CONTROL FOR STRESS PERIOD    2   TIME STEP   22
    SAVE HEAD FOR ALL LAYERS
    SAVE DRAWDOWN FOR ALL LAYERS
    SAVE BUDGET
    PRINT BUDGET
 UBDSV1 SAVING "         STORAGE" ON UNIT   9 AT TIME STEP 22, STRESS PERIOD   2
 UBDSV2 SAVING "   CONSTANT HEAD" ON UNIT   9 AT TIME STEP 22, STRESS PERIOD   2
 UBDSV1 SAVING "FLOW RIGHT FACE " ON UNIT   9 AT TIME STEP 22, STRESS PERIOD   2
 UBDSV1 SAVING "FLOW FRONT FACE " ON UNIT   9 AT TIME STEP 22, STRESS PERIOD   2
 UBDSV1 SAVING "FLOW LOWER FACE " ON UNIT   9 AT TIME STEP 22, STRESS PERIOD   2
 UBDSV4 SAVING "           WELLS" ON UNIT   9 AT TIME STEP 22, STRESS PERIOD   2
 UBDSV4 SAVING "   RIVER LEAKAGE" ON UNIT   9 AT TIME STEP 22, STRESS PERIOD   2
 UBDSV3 SAVING "              ET" ON UNIT   9 AT TIME STEP 22, STRESS PERIOD   2
 UBDSV4 SAVING " HEAD DEP BOUNDS" ON UNIT   9 AT TIME STEP 22, STRESS PERIOD   2
 UBDSV3 SAVING "        RECHARGE" ON UNIT   9 AT TIME STEP 22, STRESS PERIOD   2
 SOLVING FOR ZETA FOR LAYER     1 ZONE     2
     2 CALLS TO PCG ROUTINE FOR TIME STEP  22 IN STRESS PERIOD    2
     5 TOTAL ITERATIONS

 MAXIMUM HEAD CHANGE FOR EACH ITERATION (1 INDICATES THE FIRST INNER ITERATION):

    HEAD CHANGE    HEAD CHANGE    HEAD CHANGE    HEAD CHANGE    HEAD CHANGE 
   LAYER,ROW,COL  LAYER,ROW,COL  LAYER,ROW,COL  LAYER,ROW,COL  LAYER,ROW,COL
 ---------------------------------------------------------------------------
  1   20.58      0  0.9244E-01  0  0.1409E-02  0  0.1211E-04  1 -0.5475E-06
   (  1, 20,  9)  (  1, 15,  3)  (  1, 14,  4)  (  1, 22,  4)  (  1, 20,  9)

 MAXIMUM RESIDUAL FOR EACH ITERATION (1 INDICATES THE FIRST INNER ITERATION):

    RESIDUAL       RESIDUAL       RESIDUAL       RESIDUAL       RESIDUAL    
   LAYER,ROW,COL  LAYER,ROW,COL  LAYER,ROW,COL  LAYER,ROW,COL  LAYER,ROW,COL
 ---------------------------------------------------------------------------
  1 -0.2870E-04  0 -0.4776E-06  0 -0.4134E-08  0  0.5732E-10  1 -0.2069E-11
   (  1, 15,  3)  (  1, 14,  4)  (  1, 22,  4)  (  1, 14,  4)  (  1, 22,  4)


 SOLVING FOR ZETA FOR LAYER     2 ZONE     2
     2 CALLS TO PCG ROUTINE FOR TIME STEP  22 IN STRESS PERIOD    2
     5 TOTAL ITERATIONS

 MAXIMUM HEAD CHANGE FOR EACH ITERATION (1 INDICATES THE FIRST INNER ITERATION):

    HEAD CHANGE    HEAD CHANGE    HEAD CHANGE    HEAD CHANGE    HEAD CHANGE 
   LAYER,ROW,COL  LAYER,ROW,COL  LAYER,ROW,COL  LAYER,ROW,COL  LAYER,ROW,COL
 ---------------------------------------------------------------------------
  1   10.18      0  0.8742E-01  0  0.1360E-02  0  0.2094E-04  1 -0.4359E-06
   (  1, 18, 10)  (  1, 14,  5)  (  1, 21,  7)  (  1, 23,  6)  (  1, 14,  7)

 MAXIMUM RESIDUAL FOR EACH ITERATION (1 INDICATES THE FIRST INNER ITERATION):

    RESIDUAL       RESIDUAL       RESIDUAL       RESIDUAL       RESIDUAL    
   LAYER,ROW,COL  LAYER,ROW,COL  LAYER,ROW,COL  LAYER,ROW,COL  LAYER,ROW,COL
 ---------------------------------------------------------------------------
  1 -0.2950E-04  0 -0.4678E-06  0 -0.8187E-08  0 -0.9920E-10  1 -0.3567E-11
   (  1, 14,  5)  (  1, 24,  5)  (  1, 23,  6)  (  1, 24,  5)  (  1, 23,  6)


 UBUDSV SAVING "      ZETASRF  1" ON UNIT170 AT TIME STEP 22, STRESS PERIOD    2


                      VOLUMETRIC SWI ZONE BUDGET FOR ENTIRE MODEL
                     AT END OF TIME STEP   22 IN STRESS PERIOD   2
                                      ZONE     1
  -----------------------------------------------------------------------------------

        CUMULATIVE VOLUMES      L**3       RATES FOR THIS TIME STEP      L**3/T
        ------------------                 ------------------------

              IN:                                      IN:
              ---                                      ---
             BOUNDARIES =   588096704.0000            BOUNDARIES =           0.2288
          CONSTANT HEAD =           0.0000         CONSTANT HEAD =           0.0000
            ZONE CHANGE =   131869016.0000           ZONE CHANGE =           0.1284
       ZONE CHG TIP/TOE =     4907977.5000      ZONE CHG TIP/TOE =       5.2207E-03
            ZONE MIXING =           0.0000           ZONE MIXING =           0.0000

               TOTAL IN =   724873728.0000              TOTAL IN =           0.3624

             OUT:                                     OUT:
             ----                                     ----
             BOUNDARIES =   615582848.0000            BOUNDARIES =           0.3594
          CONSTANT HEAD =           0.0000         CONSTANT HEAD =           0.0000
            ZONE CHANGE =    24659698.0000           ZONE CHANGE =       5.3096E-03
       ZONE CHG TIP/TOE =     4407067.0000      ZONE CHG TIP/TOE =       3.7702E-03
            ZONE MIXING =       53443.8320           ZONE MIXING =       3.3894E-03

              TOTAL OUT =   644703040.0000             TOTAL OUT =           0.3719

               IN - OUT =    80170688.0000              IN - OUT =      -9.4933E-03

    PERCENT DISCREPANCY =          11.71     PERCENT DISCREPANCY =          -2.59



                      VOLUMETRIC SWI ZONE BUDGET FOR ENTIRE MODEL
                     AT END OF TIME STEP   22 IN STRESS PERIOD   2
                                      ZONE     2
  -----------------------------------------------------------------------------------

        CUMULATIVE VOLUMES      L**3       RATES FOR THIS TIME STEP      L**3/T
        ------------------                 ------------------------

              IN:                                      IN:
              ---                                      ---
             BOUNDARIES =    15710447.0000            BOUNDARIES =       7.4823E-02
          CONSTANT HEAD =           0.0000         CONSTANT HEAD =           0.0000
            ZONE CHANGE =    21458322.0000           ZONE CHANGE =       5.4349E-03
       ZONE CHG TIP/TOE =     5397121.5000      ZONE CHG TIP/TOE =       1.5842E-02
            ZONE MIXING =       53443.8320           ZONE MIXING =       3.3894E-03

               TOTAL IN =    42619336.0000              TOTAL IN =       9.9489E-02

             OUT:                                     OUT:
             ----                                     ----
             BOUNDARIES =    28180444.0000            BOUNDARIES =       1.9429E-02
          CONSTANT HEAD =           0.0000         CONSTANT HEAD =           0.0000
            ZONE CHANGE =    18937654.0000           ZONE CHANGE =       7.7838E-02
       ZONE CHG TIP/TOE =     2577862.7500      ZONE CHG TIP/TOE =       5.2207E-03
            ZONE MIXING =           0.0000           ZONE MIXING =           0.0000

              TOTAL OUT =    49695960.0000             TOTAL OUT =           0.1025

               IN - OUT =    -7076624.0000              IN - OUT =      -2.9992E-03

    PERCENT DISCREPANCY =         -15.33     PERCENT DISCREPANCY =          -2.97


 HEAD WILL BE SAVED ON UNIT   37 AT END OF TIME STEP   22, STRESS PERIOD    2

 DRAWDOWN WILL BE SAVED ON UNIT   38 AT END OF TIME STEP   22, STRESS PERIOD    2
1
  VOLUMETRIC BUDGET FOR ENTIRE MODEL AT END OF TIME STEP   22, STRESS PERIOD   2
  ------------------------------------------------------------------------------

     CUMULATIVE VOLUMES      L**3       RATES FOR THIS TIME STEP      L**3/T
     ------------------                 ------------------------

           IN:                                      IN:
           ---                                      ---
             STORAGE =    39949728.0000               STORAGE =       7.5241E-02
       CONSTANT HEAD =           0.0000         CONSTANT HEAD =           0.0000
               WELLS =           0.0000                 WELLS =           0.0000
       RIVER LEAKAGE =   124805600.0000         RIVER LEAKAGE =       4.2000E-02
                  ET =           0.0000                    ET =           0.0000
     HEAD DEP BOUNDS =    22196290.0000       HEAD DEP BOUNDS =       8.9101E-02
            RECHARGE =   489244288.0000              RECHARGE =           0.1939
          SWIADDTOCH =           0.0000            SWIADDTOCH =           0.0000

            TOTAL IN =   676195904.0000              TOTAL IN =           0.4002

          OUT:                                     OUT:
          ----                                     ----
             STORAGE =        6764.2578               STORAGE =       2.9053E-05
       CONSTANT HEAD =           0.0000         CONSTANT HEAD =           0.0000
               WELLS =   135825552.0000                 WELLS =           0.3880
       RIVER LEAKAGE =    21630804.0000         RIVER LEAKAGE =           0.0000
                  ET =   166413648.0000                    ET =           0.0000
     HEAD DEP BOUNDS =   352332064.0000       HEAD DEP BOUNDS =       1.2186E-02
            RECHARGE =           0.0000              RECHARGE =           0.0000
          SWIADDTOCH =           0.0000            SWIADDTOCH =           0.0000

           TOTAL OUT =   676208832.0000             TOTAL OUT =           0.4002

            IN - OUT =      -12928.0000              IN - OUT =      -5.9605E-08

 PERCENT DISCREPANCY =          -0.00     PERCENT DISCREPANCY =          -0.00






         TIME SUMMARY AT END OF TIME STEP   22 IN STRESS PERIOD    2
                    SECONDS     MINUTES      HOURS       DAYS        YEARS
                    -----------------------------------------------------------
   TIME STEP LENGTH 1.57680E+07 2.62800E+05  4380.0      182.50     0.49966    
 STRESS PERIOD TIME 3.46896E+08 5.78160E+06  96360.      4015.0      10.992    
         TOTAL TIME 3.50050E+09 5.83416E+07 9.72360E+05  40515.      110.92    
1
 
 SOLVING FOR HEAD 

 CELL CONVERSIONS FOR ITER.=  2  LAYER=  1  STEP= 23  PERIOD=   2   (ROW,COL)
    DRY( 21, 38)   
     6 CALLS TO PCG ROUTINE FOR TIME STEP  23 IN STRESS PERIOD    2
    18 TOTAL ITERATIONS

 MAXIMUM HEAD CHANGE FOR EACH ITERATION (1 INDICATES THE FIRST INNER ITERATION):

    HEAD CHANGE    HEAD CHANGE    HEAD CHANGE    HEAD CHANGE    HEAD CHANGE 
   LAYER,ROW,COL  LAYER,ROW,COL  LAYER,ROW,COL  LAYER,ROW,COL  LAYER,ROW,COL
 ---------------------------------------------------------------------------
  1 -0.4788      0  0.1492      0 -0.4154E-01  0 -0.7093E-02  0 -0.2436E-02
   (  1, 17,  9)  (  2, 18, 10)  (  2, 17,  8)  (  2, 13, 10)  (  1, 18,  7)
  0  0.6471E-03  1 -0.4527E-01  0  0.9206E-02  0  0.2067E-02  0  0.5470E-03
   (  2, 19,  7)  (  2, 21, 38)  (  2, 18, 44)  (  2, 18, 44)  (  2, 55, 30)
  1 -0.9136E-02  0 -0.1477E-02  0 -0.3392E-03  1  0.4652E-02  0  0.2621E-03
   (  2, 55, 30)  (  2, 55, 30)  (  2, 55, 30)  (  2, 55, 30)  (  2, 55, 30)
  1 -0.1898E-02  0 -0.2193E-03  1  0.7416E-03
   (  2, 55, 30)  (  2, 55, 30)  (  2, 55, 30)

 MAXIMUM RESIDUAL FOR EACH ITERATION (1 INDICATES THE FIRST INNER ITERATION):

    RESIDUAL       RESIDUAL       RESIDUAL       RESIDUAL       RESIDUAL    
   LAYER,ROW,COL  LAYER,ROW,COL  LAYER,ROW,COL  LAYER,ROW,COL  LAYER,ROW,COL
 ---------------------------------------------------------------------------
  1  0.9786E-03  0  0.3060E-03  0  0.7389E-04  0  0.2359E-04  0 -0.1040E-04
   (  2, 17,  8)  (  2, 17,  8)  (  2, 17,  6)  (  2, 17,  6)  (  2, 19,  7)
  0 -0.2580E-05  1  0.3380E-04  0  0.1244E-04  0  0.3816E-05  0  0.8765E-06
   (  2, 19,  7)  (  2, 21, 38)  (  2, 20, 39)  (  2, 20, 39)  (  2, 23, 36)
  1 -0.8895E-06  0 -0.2972E-06  0  0.7356E-07  1  0.2707E-06  0 -0.1118E-06
   (  2, 18, 11)  (  2, 20,  9)  (  2, 19, 43)  (  2, 53, 31)  (  2, 54, 30)
  1 -0.1396E-06  0  0.8533E-07  1  0.6810E-07
   (  2, 53, 31)  (  2, 54, 30)  (  2, 53, 31)



 OUTPUT CONTROL FOR STRESS PERIOD    2   TIME STEP   23
    SAVE HEAD FOR ALL LAYERS
    SAVE DRAWDOWN FOR ALL LAYERS
    SAVE BUDGET
    PRINT BUDGET
 UBDSV1 SAVING "         STORAGE" ON UNIT   9 AT TIME STEP 23, STRESS PERIOD   2
 UBDSV2 SAVING "   CONSTANT HEAD" ON UNIT   9 AT TIME STEP 23, STRESS PERIOD   2
 UBDSV1 SAVING "FLOW RIGHT FACE " ON UNIT   9 AT TIME STEP 23, STRESS PERIOD   2
 UBDSV1 SAVING "FLOW FRONT FACE " ON UNIT   9 AT TIME STEP 23, STRESS PERIOD   2
 UBDSV1 SAVING "FLOW LOWER FACE " ON UNIT   9 AT TIME STEP 23, STRESS PERIOD   2
 UBDSV4 SAVING "           WELLS" ON UNIT   9 AT TIME STEP 23, STRESS PERIOD   2
 UBDSV4 SAVING "   RIVER LEAKAGE" ON UNIT   9 AT TIME STEP 23, STRESS PERIOD   2
 UBDSV3 SAVING "              ET" ON UNIT   9 AT TIME STEP 23, STRESS PERIOD   2
 UBDSV4 SAVING " HEAD DEP BOUNDS" ON UNIT   9 AT TIME STEP 23, STRESS PERIOD   2
 UBDSV3 SAVING "        RECHARGE" ON UNIT   9 AT TIME STEP 23, STRESS PERIOD   2
 SOLVING FOR ZETA FOR LAYER     1 ZONE     2
     2 CALLS TO PCG ROUTINE FOR TIME STEP  23 IN STRESS PERIOD    2
     5 TOTAL ITERATIONS

 MAXIMUM HEAD CHANGE FOR EACH ITERATION (1 INDICATES THE FIRST INNER ITERATION):

    HEAD CHANGE    HEAD CHANGE    HEAD CHANGE    HEAD CHANGE    HEAD CHANGE 
   LAYER,ROW,COL  LAYER,ROW,COL  LAYER,ROW,COL  LAYER,ROW,COL  LAYER,ROW,COL
 ---------------------------------------------------------------------------
  1   13.54      0  0.9714E-01  0  0.1639E-02  0  0.1957E-04  1  0.3687E-06
   (  1, 17,  9)  (  1, 15,  3)  (  1, 21,  5)  (  1, 20,  6)  (  1, 17,  9)

 MAXIMUM RESIDUAL FOR EACH ITERATION (1 INDICATES THE FIRST INNER ITERATION):

    RESIDUAL       RESIDUAL       RESIDUAL       RESIDUAL       RESIDUAL    
   LAYER,ROW,COL  LAYER,ROW,COL  LAYER,ROW,COL  LAYER,ROW,COL  LAYER,ROW,COL
 ---------------------------------------------------------------------------
  1 -0.3217E-04  0 -0.5634E-06  0 -0.7197E-08  0 -0.9668E-10  1  0.1474E-11
   (  1, 22,  4)  (  1, 21,  5)  (  1, 22,  4)  (  1, 21,  5)  (  1, 15,  3)


 SOLVING FOR ZETA FOR LAYER     2 ZONE     2
     2 CALLS TO PCG ROUTINE FOR TIME STEP  23 IN STRESS PERIOD    2
     5 TOTAL ITERATIONS

 MAXIMUM HEAD CHANGE FOR EACH ITERATION (1 INDICATES THE FIRST INNER ITERATION):

    HEAD CHANGE    HEAD CHANGE    HEAD CHANGE    HEAD CHANGE    HEAD CHANGE 
   LAYER,ROW,COL  LAYER,ROW,COL  LAYER,ROW,COL  LAYER,ROW,COL  LAYER,ROW,COL
 ---------------------------------------------------------------------------
  1   10.16      0  0.9416E-01  0  0.1453E-02  0  0.3071E-04  1  0.3953E-06
   (  1, 18, 10)  (  1, 14,  5)  (  1, 22,  7)  (  1, 23,  6)  (  1, 24,  5)

 MAXIMUM RESIDUAL FOR EACH ITERATION (1 INDICATES THE FIRST INNER ITERATION):

    RESIDUAL       RESIDUAL       RESIDUAL       RESIDUAL       RESIDUAL    
   LAYER,ROW,COL  LAYER,ROW,COL  LAYER,ROW,COL  LAYER,ROW,COL  LAYER,ROW,COL
 ---------------------------------------------------------------------------
  1 -0.3023E-04  0 -0.5012E-06  0 -0.1231E-07  0 -0.1510E-09  1 -0.4396E-11
   (  1, 14,  5)  (  1, 24,  5)  (  1, 23,  6)  (  1, 24,  5)  (  1, 23,  6)


 UBUDSV SAVING "      ZETASRF  1" ON UNIT170 AT TIME STEP 23, STRESS PERIOD    2


                      VOLUMETRIC SWI ZONE BUDGET FOR ENTIRE MODEL
                     AT END OF TIME STEP   23 IN STRESS PERIOD   2
                                      ZONE     1
  -----------------------------------------------------------------------------------

        CUMULATIVE VOLUMES      L**3       RATES FOR THIS TIME STEP      L**3/T
        ------------------                 ------------------------

              IN:                                      IN:
              ---                                      ---
             BOUNDARIES =   591681984.0000            BOUNDARIES =           0.2274
          CONSTANT HEAD =           0.0000         CONSTANT HEAD =           0.0000
            ZONE CHANGE =   133660432.0000           ZONE CHANGE =           0.1136
       ZONE CHG TIP/TOE =     5043539.0000      ZONE CHG TIP/TOE =       8.5972E-03
            ZONE MIXING =           0.0000           ZONE MIXING =           0.0000

               TOTAL IN =   730385920.0000              TOTAL IN =           0.3496

             OUT:                                     OUT:
             ----                                     ----
             BOUNDARIES =   621016512.0000            BOUNDARIES =           0.3446
          CONSTANT HEAD =           0.0000         CONSTANT HEAD =           0.0000
            ZONE CHANGE =    24825952.0000           ZONE CHANGE =       1.0544E-02
       ZONE CHG TIP/TOE =     4514615.0000      ZONE CHG TIP/TOE =       6.8206E-03
            ZONE MIXING =      116006.1719           ZONE MIXING =       3.9677E-03

              TOTAL OUT =   650473088.0000             TOTAL OUT =           0.3659

               IN - OUT =    79912832.0000              IN - OUT =      -1.6351E-02

    PERCENT DISCREPANCY =          11.57     PERCENT DISCREPANCY =          -4.57



                      VOLUMETRIC SWI ZONE BUDGET FOR ENTIRE MODEL
                     AT END OF TIME STEP   23 IN STRESS PERIOD   2
                                      ZONE     2
  -----------------------------------------------------------------------------------

        CUMULATIVE VOLUMES      L**3       RATES FOR THIS TIME STEP      L**3/T
        ------------------                 ------------------------

              IN:                                      IN:
              ---                                      ---
             BOUNDARIES =    16922246.0000            BOUNDARIES =       7.6852E-02
          CONSTANT HEAD =           0.0000         CONSTANT HEAD =           0.0000
            ZONE CHANGE =    21600560.0000           ZONE CHANGE =       9.0207E-03
       ZONE CHG TIP/TOE =     5679845.5000      ZONE CHG TIP/TOE =       1.7930E-02
            ZONE MIXING =      116006.1719           ZONE MIXING =       3.9677E-03

               TOTAL IN =    44318656.0000              TOTAL IN =           0.1078

             OUT:                                     OUT:
             ----                                     ----
             BOUNDARIES =    28714324.0000            BOUNDARIES =       3.3858E-02
          CONSTANT HEAD =           0.0000         CONSTANT HEAD =           0.0000
            ZONE CHANGE =    19932588.0000           ZONE CHANGE =       6.3098E-02
       ZONE CHG TIP/TOE =     2684975.7500      ZONE CHG TIP/TOE =       6.7931E-03
            ZONE MIXING =           0.0000           ZONE MIXING =           0.0000

              TOTAL OUT =    51331888.0000             TOTAL OUT =           0.1037

               IN - OUT =    -7013232.0000              IN - OUT =       4.0205E-03

    PERCENT DISCREPANCY =         -14.66     PERCENT DISCREPANCY =           3.80


 HEAD WILL BE SAVED ON UNIT   37 AT END OF TIME STEP   23, STRESS PERIOD    2

 DRAWDOWN WILL BE SAVED ON UNIT   38 AT END OF TIME STEP   23, STRESS PERIOD    2
1
  VOLUMETRIC BUDGET FOR ENTIRE MODEL AT END OF TIME STEP   23, STRESS PERIOD   2
  ------------------------------------------------------------------------------

     CUMULATIVE VOLUMES      L**3       RATES FOR THIS TIME STEP      L**3/T
     ------------------                 ------------------------

           IN:                                      IN:
           ---                                      ---
             STORAGE =    41120364.0000               STORAGE =       7.4241E-02
       CONSTANT HEAD =           0.0000         CONSTANT HEAD =           0.0000
               WELLS =           0.0000                 WELLS =           0.0000
       RIVER LEAKAGE =   125467856.0000         RIVER LEAKAGE =       4.2000E-02
                  ET =           0.0000                    ET =           0.0000
     HEAD DEP BOUNDS =    23613080.0000       HEAD DEP BOUNDS =       8.9852E-02
            RECHARGE =   492298304.0000              RECHARGE =           0.1937
          SWIADDTOCH =           0.0000            SWIADDTOCH =           0.0000

            TOTAL IN =   682499584.0000              TOTAL IN =           0.3998

          OUT:                                     OUT:
          ----                                     ----
             STORAGE =        6883.2446               STORAGE =       7.5461E-06
       CONSTANT HEAD =           0.0000         CONSTANT HEAD =           0.0000
               WELLS =   141943536.0000                 WELLS =           0.3880
       RIVER LEAKAGE =    21630804.0000         RIVER LEAKAGE =           0.0000
                  ET =   166413648.0000                    ET =           0.0000
     HEAD DEP BOUNDS =   352517632.0000       HEAD DEP BOUNDS =       1.1769E-02
            RECHARGE =           0.0000              RECHARGE =           0.0000
          SWIADDTOCH =           0.0000            SWIADDTOCH =           0.0000

           TOTAL OUT =   682512512.0000             TOTAL OUT =           0.3998

            IN - OUT =      -12928.0000              IN - OUT =      -5.9605E-08

 PERCENT DISCREPANCY =          -0.00     PERCENT DISCREPANCY =          -0.00






         TIME SUMMARY AT END OF TIME STEP   23 IN STRESS PERIOD    2
                    SECONDS     MINUTES      HOURS       DAYS        YEARS
                    -----------------------------------------------------------
   TIME STEP LENGTH 1.57680E+07 2.62800E+05  4380.0      182.50     0.49966    
 STRESS PERIOD TIME 3.62664E+08 6.04440E+06 1.00740E+05  4197.5      11.492    
         TOTAL TIME 3.51627E+09 5.86044E+07 9.76740E+05  40698.      111.42    
1
 
 SOLVING FOR HEAD 

 CELL CONVERSIONS FOR ITER.=  2  LAYER=  1  STEP= 24  PERIOD=   2   (ROW,COL)
    DRY(  9, 29)   DRY( 18, 36)   
     7 CALLS TO PCG ROUTINE FOR TIME STEP  24 IN STRESS PERIOD    2
    20 TOTAL ITERATIONS

 MAXIMUM HEAD CHANGE FOR EACH ITERATION (1 INDICATES THE FIRST INNER ITERATION):

    HEAD CHANGE    HEAD CHANGE    HEAD CHANGE    HEAD CHANGE    HEAD CHANGE 
   LAYER,ROW,COL  LAYER,ROW,COL  LAYER,ROW,COL  LAYER,ROW,COL  LAYER,ROW,COL
 ---------------------------------------------------------------------------
  1 -0.3934      0 -0.1440      0 -0.2448E-01  0 -0.7718E-02  0  0.2911E-02
   (  1, 17,  9)  (  2, 15, 10)  (  2, 12, 11)  (  2, 18,  6)  (  2,  6, 11)
  0  0.9530E-03  1 -0.3548E-01  0  0.9330E-02  0  0.2478E-02  0  0.6367E-03
   (  2,  4, 13)  (  2,  9, 29)  (  2, 18, 44)  (  2, 18, 44)  (  2, 18, 44)
  1 -0.1211E-01  0 -0.1340E-02  0 -0.3346E-03  1  0.6196E-02  0  0.3300E-03
   (  2, 18, 44)  (  2, 18, 44)  (  2, 55, 30)  (  2, 55, 30)  (  2, 55, 30)
  1 -0.3123E-02  0 -0.2805E-03  1  0.1515E-02  0  0.1773E-03  1 -0.6966E-03
   (  2, 55, 30)  (  2, 55, 30)  (  2, 55, 30)  (  2, 55, 30)  (  2, 55, 30)

 MAXIMUM RESIDUAL FOR EACH ITERATION (1 INDICATES THE FIRST INNER ITERATION):

    RESIDUAL       RESIDUAL       RESIDUAL       RESIDUAL       RESIDUAL    
   LAYER,ROW,COL  LAYER,ROW,COL  LAYER,ROW,COL  LAYER,ROW,COL  LAYER,ROW,COL
 ---------------------------------------------------------------------------
  1 -0.6562E-03  0 -0.2400E-03  0 -0.7386E-04  0  0.2093E-04  0 -0.6505E-05
   (  2, 17,  9)  (  2, 20,  9)  (  1, 17,  8)  (  2, 17,  9)  (  2, 16,  9)
  0 -0.1936E-05  1  0.3419E-04  0  0.1025E-04  0  0.3267E-05  0  0.1044E-05
   (  2, 16,  9)  (  2,  9, 29)  (  2, 17, 37)  (  2, 17, 37)  (  2, 17, 37)
  1 -0.8787E-06  0 -0.3532E-06  0  0.8084E-07  1 -0.3533E-06  0 -0.1204E-06
   (  2, 18, 10)  (  2, 19, 42)  (  2, 19, 43)  (  2, 54, 30)  (  2, 54, 30)
  1 -0.2062E-06  0  0.1212E-06  1  0.1243E-06  0 -0.6805E-07  1 -0.5910E-07
   (  2, 53, 31)  (  2, 54, 30)  (  2, 53, 31)  (  2, 54, 30)  (  2, 53, 31)



 OUTPUT CONTROL FOR STRESS PERIOD    2   TIME STEP   24
    SAVE HEAD FOR ALL LAYERS
    SAVE DRAWDOWN FOR ALL LAYERS
    SAVE BUDGET
    PRINT BUDGET
 UBDSV1 SAVING "         STORAGE" ON UNIT   9 AT TIME STEP 24, STRESS PERIOD   2
 UBDSV2 SAVING "   CONSTANT HEAD" ON UNIT   9 AT TIME STEP 24, STRESS PERIOD   2
 UBDSV1 SAVING "FLOW RIGHT FACE " ON UNIT   9 AT TIME STEP 24, STRESS PERIOD   2
 UBDSV1 SAVING "FLOW FRONT FACE " ON UNIT   9 AT TIME STEP 24, STRESS PERIOD   2
 UBDSV1 SAVING "FLOW LOWER FACE " ON UNIT   9 AT TIME STEP 24, STRESS PERIOD   2
 UBDSV4 SAVING "           WELLS" ON UNIT   9 AT TIME STEP 24, STRESS PERIOD   2
 UBDSV4 SAVING "   RIVER LEAKAGE" ON UNIT   9 AT TIME STEP 24, STRESS PERIOD   2
 UBDSV3 SAVING "              ET" ON UNIT   9 AT TIME STEP 24, STRESS PERIOD   2
 UBDSV4 SAVING " HEAD DEP BOUNDS" ON UNIT   9 AT TIME STEP 24, STRESS PERIOD   2
 UBDSV3 SAVING "        RECHARGE" ON UNIT   9 AT TIME STEP 24, STRESS PERIOD   2
 SOLVING FOR ZETA FOR LAYER     1 ZONE     2
     2 CALLS TO PCG ROUTINE FOR TIME STEP  24 IN STRESS PERIOD    2
     5 TOTAL ITERATIONS

 MAXIMUM HEAD CHANGE FOR EACH ITERATION (1 INDICATES THE FIRST INNER ITERATION):

    HEAD CHANGE    HEAD CHANGE    HEAD CHANGE    HEAD CHANGE    HEAD CHANGE 
   LAYER,ROW,COL  LAYER,ROW,COL  LAYER,ROW,COL  LAYER,ROW,COL  LAYER,ROW,COL
 ---------------------------------------------------------------------------
  1   23.12      0  0.1486      0  0.1737E-02  0  0.3548E-04  1 -0.6753E-06
   (  1, 18, 10)  (  1, 16,  4)  (  1, 21,  5)  (  1, 22,  4)  (  1, 15,  5)

 MAXIMUM RESIDUAL FOR EACH ITERATION (1 INDICATES THE FIRST INNER ITERATION):

    RESIDUAL       RESIDUAL       RESIDUAL       RESIDUAL       RESIDUAL    
   LAYER,ROW,COL  LAYER,ROW,COL  LAYER,ROW,COL  LAYER,ROW,COL  LAYER,ROW,COL
 ---------------------------------------------------------------------------
  1 -0.5087E-04  0 -0.5349E-06  0 -0.1351E-07  0  0.9988E-10  1  0.2381E-11
   (  1, 16,  4)  (  1, 21,  5)  (  1, 22,  4)  (  1, 15,  5)  (  1, 16,  4)


 SOLVING FOR ZETA FOR LAYER     2 ZONE     2
     2 CALLS TO PCG ROUTINE FOR TIME STEP  24 IN STRESS PERIOD    2
     5 TOTAL ITERATIONS

 MAXIMUM HEAD CHANGE FOR EACH ITERATION (1 INDICATES THE FIRST INNER ITERATION):

    HEAD CHANGE    HEAD CHANGE    HEAD CHANGE    HEAD CHANGE    HEAD CHANGE 
   LAYER,ROW,COL  LAYER,ROW,COL  LAYER,ROW,COL  LAYER,ROW,COL  LAYER,ROW,COL
 ---------------------------------------------------------------------------
  1   10.92      0  0.6769E-01  0  0.1549E-02  0  0.2417E-04  1 -0.2465E-06
   (  1, 14,  7)  (  1, 23,  6)  (  1, 22,  7)  (  1, 23,  6)  (  1, 16,  6)

 MAXIMUM RESIDUAL FOR EACH ITERATION (1 INDICATES THE FIRST INNER ITERATION):

    RESIDUAL       RESIDUAL       RESIDUAL       RESIDUAL       RESIDUAL    
   LAYER,ROW,COL  LAYER,ROW,COL  LAYER,ROW,COL  LAYER,ROW,COL  LAYER,ROW,COL
 ---------------------------------------------------------------------------
  1 -0.2438E-04  0 -0.5365E-06  0 -0.1007E-07  0 -0.8132E-10  1 -0.2446E-11
   (  1, 23,  6)  (  1, 22,  7)  (  1, 23,  6)  (  1, 24,  5)  (  1, 23,  6)


 UBUDSV SAVING "      ZETASRF  1" ON UNIT170 AT TIME STEP 24, STRESS PERIOD    2


                      VOLUMETRIC SWI ZONE BUDGET FOR ENTIRE MODEL
                     AT END OF TIME STEP   24 IN STRESS PERIOD   2
                                      ZONE     1
  -----------------------------------------------------------------------------------

        CUMULATIVE VOLUMES      L**3       RATES FOR THIS TIME STEP      L**3/T
        ------------------                 ------------------------

              IN:                                      IN:
              ---                                      ---
             BOUNDARIES =   595183424.0000            BOUNDARIES =           0.2221
          CONSTANT HEAD =           0.0000         CONSTANT HEAD =           0.0000
            ZONE CHANGE =   135539440.0000           ZONE CHANGE =           0.1192
       ZONE CHG TIP/TOE =     5173509.5000      ZONE CHG TIP/TOE =       8.2427E-03
            ZONE MIXING =           0.0000           ZONE MIXING =           0.0000

               TOTAL IN =   735896384.0000              TOTAL IN =           0.3495

             OUT:                                     OUT:
             ----                                     ----
             BOUNDARIES =   626598720.0000            BOUNDARIES =           0.3540
          CONSTANT HEAD =           0.0000         CONSTANT HEAD =           0.0000
            ZONE CHANGE =    24966194.0000           ZONE CHANGE =       8.8941E-03
       ZONE CHG TIP/TOE =     4621450.5000      ZONE CHG TIP/TOE =       6.7755E-03
            ZONE MIXING =      116006.1719           ZONE MIXING =           0.0000

              TOTAL OUT =   656302400.0000             TOTAL OUT =           0.3697

               IN - OUT =    79593984.0000              IN - OUT =      -2.0225E-02

    PERCENT DISCREPANCY =          11.43     PERCENT DISCREPANCY =          -5.62



                      VOLUMETRIC SWI ZONE BUDGET FOR ENTIRE MODEL
                     AT END OF TIME STEP   24 IN STRESS PERIOD   2
                                      ZONE     2
  -----------------------------------------------------------------------------------

        CUMULATIVE VOLUMES      L**3       RATES FOR THIS TIME STEP      L**3/T
        ------------------                 ------------------------

              IN:                                      IN:
              ---                                      ---
             BOUNDARIES =    18239876.0000            BOUNDARIES =       8.3564E-02
          CONSTANT HEAD =           0.0000         CONSTANT HEAD =           0.0000
            ZONE CHANGE =    21713094.0000           ZONE CHANGE =       7.1369E-03
       ZONE CHG TIP/TOE =     6087994.5000      ZONE CHG TIP/TOE =       2.5885E-02
            ZONE MIXING =      116006.1719           ZONE MIXING =           0.0000

               TOTAL IN =    46156968.0000              TOTAL IN =           0.1166

             OUT:                                     OUT:
             ----                                     ----
             BOUNDARIES =    29093524.0000            BOUNDARIES =       2.4049E-02
          CONSTANT HEAD =           0.0000         CONSTANT HEAD =           0.0000
            ZONE CHANGE =    21165382.0000           ZONE CHANGE =       7.8183E-02
       ZONE CHG TIP/TOE =     2782128.0000      ZONE CHG TIP/TOE =       6.1614E-03
            ZONE MIXING =           0.0000           ZONE MIXING =           0.0000

              TOTAL OUT =    53041032.0000             TOTAL OUT =           0.1084

               IN - OUT =    -6884064.0000              IN - OUT =       8.1917E-03

    PERCENT DISCREPANCY =         -13.88     PERCENT DISCREPANCY =           7.28


 HEAD WILL BE SAVED ON UNIT   37 AT END OF TIME STEP   24, STRESS PERIOD    2

 DRAWDOWN WILL BE SAVED ON UNIT   38 AT END OF TIME STEP   24, STRESS PERIOD    2
1
  VOLUMETRIC BUDGET FOR ENTIRE MODEL AT END OF TIME STEP   24, STRESS PERIOD   2
  ------------------------------------------------------------------------------

     CUMULATIVE VOLUMES      L**3       RATES FOR THIS TIME STEP      L**3/T
     ------------------                 ------------------------

           IN:                                      IN:
           ---                                      ---
             STORAGE =    42262808.0000               STORAGE =       7.2453E-02
       CONSTANT HEAD =           0.0000         CONSTANT HEAD =           0.0000
               WELLS =           0.0000                 WELLS =           0.0000
       RIVER LEAKAGE =   126130112.0000         RIVER LEAKAGE =       4.2000E-02
                  ET =           0.0000                    ET =           0.0000
     HEAD DEP BOUNDS =    25057868.0000       HEAD DEP BOUNDS =       9.1628E-02
            RECHARGE =   495346304.0000              RECHARGE =           0.1933
          SWIADDTOCH =           0.0000            SWIADDTOCH =           0.0000

            TOTAL IN =   688797120.0000              TOTAL IN =           0.3994

          OUT:                                     OUT:
          ----                                     ----
             STORAGE =        6937.8052               STORAGE =       3.4602E-06
       CONSTANT HEAD =           0.0000         CONSTANT HEAD =           0.0000
               WELLS =   148061520.0000                 WELLS =           0.3880
       RIVER LEAKAGE =    21630804.0000         RIVER LEAKAGE =           0.0000
                  ET =   166413648.0000                    ET =           0.0000
     HEAD DEP BOUNDS =   352697088.0000       HEAD DEP BOUNDS =       1.1381E-02
            RECHARGE =           0.0000              RECHARGE =           0.0000
          SWIADDTOCH =           0.0000            SWIADDTOCH =           0.0000

           TOTAL OUT =   688809984.0000             TOTAL OUT =           0.3994

            IN - OUT =      -12864.0000              IN - OUT =      -5.9605E-08

 PERCENT DISCREPANCY =          -0.00     PERCENT DISCREPANCY =          -0.00






         TIME SUMMARY AT END OF TIME STEP   24 IN STRESS PERIOD    2
                    SECONDS     MINUTES      HOURS       DAYS        YEARS
                    -----------------------------------------------------------
   TIME STEP LENGTH 1.57680E+07 2.62800E+05  4380.0      182.50     0.49966    
 STRESS PERIOD TIME 3.78432E+08 6.30720E+06 1.05120E+05  4380.0      11.992    
         TOTAL TIME 3.53203E+09 5.88672E+07 9.81120E+05  40880.      111.92    
1
 
 SOLVING FOR HEAD 

 CELL CONVERSIONS FOR ITER.=  2  LAYER=  1  STEP= 25  PERIOD=   2   (ROW,COL)
    DRY( 13, 30)   DRY( 36, 34)   DRY( 38, 31)   DRY( 40, 34)   
     8 CALLS TO PCG ROUTINE FOR TIME STEP  25 IN STRESS PERIOD    2
    22 TOTAL ITERATIONS

 MAXIMUM HEAD CHANGE FOR EACH ITERATION (1 INDICATES THE FIRST INNER ITERATION):

    HEAD CHANGE    HEAD CHANGE    HEAD CHANGE    HEAD CHANGE    HEAD CHANGE 
   LAYER,ROW,COL  LAYER,ROW,COL  LAYER,ROW,COL  LAYER,ROW,COL  LAYER,ROW,COL
 ---------------------------------------------------------------------------
  1 -0.3767      0  0.1235      0 -0.3083E-01  0 -0.7927E-02  0 -0.1620E-02
   (  2, 21,  9)  (  2, 21,  7)  (  2, 22,  8)  (  2, 16,  7)  (  2,  7,  9)
  0 -0.6314E-03  1 -0.4951E-01  0  0.9499E-02  0  0.2252E-02  0  0.6085E-03
   (  1, 35,  8)  (  2, 40, 34)  (  2, 18, 44)  (  2, 18, 44)  (  2, 18, 44)
  1 -0.1631E-01  0 -0.1760E-02  0 -0.3355E-03  1  0.7844E-02  0  0.3980E-03
   (  2, 18, 44)  (  2, 18, 44)  (  2, 18, 44)  (  2, 18, 44)  (  2, 55, 30)
  1 -0.4429E-02  0 -0.3425E-03  1  0.2565E-02  0  0.2674E-03  1 -0.1449E-02
   (  2, 55, 30)  (  2, 55, 30)  (  2, 55, 30)  (  2, 55, 30)  (  2, 55, 30)
  0 -0.1918E-03  1  0.8253E-03
   (  2, 55, 30)  (  2, 55, 30)

 MAXIMUM RESIDUAL FOR EACH ITERATION (1 INDICATES THE FIRST INNER ITERATION):

    RESIDUAL       RESIDUAL       RESIDUAL       RESIDUAL       RESIDUAL    
   LAYER,ROW,COL  LAYER,ROW,COL  LAYER,ROW,COL  LAYER,ROW,COL  LAYER,ROW,COL
 ---------------------------------------------------------------------------
  1 -0.7767E-03  0  0.2002E-03  0  0.6637E-04  0 -0.1832E-04  0  0.6504E-05
   (  1, 21,  9)  (  2, 22,  8)  (  2, 18, 10)  (  2, 20,  5)  (  2, 16,  9)
  0 -0.2227E-05  1  0.4284E-04  0  0.1130E-04  0  0.3254E-05  0  0.8085E-06
   (  1, 20,  9)  (  2, 13, 30)  (  2, 14, 29)  (  2, 14, 29)  (  2, 14, 29)
  1 -0.9320E-06  0  0.4735E-06  0  0.1038E-06  1 -0.5398E-06  0 -0.1400E-06
   (  2, 19, 42)  (  2, 18, 43)  (  2, 18, 43)  (  2, 18, 43)  (  2, 18, 43)
  1 -0.2732E-06  0  0.1560E-06  1  0.1918E-06  0 -0.1045E-06  1 -0.1130E-06
   (  2, 53, 31)  (  2, 54, 30)  (  2, 53, 31)  (  2, 54, 30)  (  2, 53, 31)
  0  0.6826E-07  1  0.6852E-07
   (  2, 54, 30)  (  2, 53, 31)



 OUTPUT CONTROL FOR STRESS PERIOD    2   TIME STEP   25
    SAVE HEAD FOR ALL LAYERS
    SAVE DRAWDOWN FOR ALL LAYERS
    SAVE BUDGET
    PRINT BUDGET
 UBDSV1 SAVING "         STORAGE" ON UNIT   9 AT TIME STEP 25, STRESS PERIOD   2
 UBDSV2 SAVING "   CONSTANT HEAD" ON UNIT   9 AT TIME STEP 25, STRESS PERIOD   2
 UBDSV1 SAVING "FLOW RIGHT FACE " ON UNIT   9 AT TIME STEP 25, STRESS PERIOD   2
 UBDSV1 SAVING "FLOW FRONT FACE " ON UNIT   9 AT TIME STEP 25, STRESS PERIOD   2
 UBDSV1 SAVING "FLOW LOWER FACE " ON UNIT   9 AT TIME STEP 25, STRESS PERIOD   2
 UBDSV4 SAVING "           WELLS" ON UNIT   9 AT TIME STEP 25, STRESS PERIOD   2
 UBDSV4 SAVING "   RIVER LEAKAGE" ON UNIT   9 AT TIME STEP 25, STRESS PERIOD   2
 UBDSV3 SAVING "              ET" ON UNIT   9 AT TIME STEP 25, STRESS PERIOD   2
 UBDSV4 SAVING " HEAD DEP BOUNDS" ON UNIT   9 AT TIME STEP 25, STRESS PERIOD   2
 UBDSV3 SAVING "        RECHARGE" ON UNIT   9 AT TIME STEP 25, STRESS PERIOD   2
 SOLVING FOR ZETA FOR LAYER     1 ZONE     2
     2 CALLS TO PCG ROUTINE FOR TIME STEP  25 IN STRESS PERIOD    2
     5 TOTAL ITERATIONS

 MAXIMUM HEAD CHANGE FOR EACH ITERATION (1 INDICATES THE FIRST INNER ITERATION):

    HEAD CHANGE    HEAD CHANGE    HEAD CHANGE    HEAD CHANGE    HEAD CHANGE 
   LAYER,ROW,COL  LAYER,ROW,COL  LAYER,ROW,COL  LAYER,ROW,COL  LAYER,ROW,COL
 ---------------------------------------------------------------------------
  1   16.78      0  0.1058      0  0.2049E-02  0  0.1853E-04  1 -0.4839E-06
   (  1, 17,  9)  (  1, 22,  4)  (  1, 21,  5)  (  1, 22,  4)  (  1, 17,  9)

 MAXIMUM RESIDUAL FOR EACH ITERATION (1 INDICATES THE FIRST INNER ITERATION):

    RESIDUAL       RESIDUAL       RESIDUAL       RESIDUAL       RESIDUAL    
   LAYER,ROW,COL  LAYER,ROW,COL  LAYER,ROW,COL  LAYER,ROW,COL  LAYER,ROW,COL
 ---------------------------------------------------------------------------
  1 -0.4058E-04  0 -0.6446E-06  0 -0.7100E-08  0  0.8161E-10  1 -0.1742E-11
   (  1, 22,  4)  (  1, 21,  5)  (  1, 22,  4)  (  1, 13,  4)  (  1, 22,  4)


 SOLVING FOR ZETA FOR LAYER     2 ZONE     2
     2 CALLS TO PCG ROUTINE FOR TIME STEP  25 IN STRESS PERIOD    2
     5 TOTAL ITERATIONS

 MAXIMUM HEAD CHANGE FOR EACH ITERATION (1 INDICATES THE FIRST INNER ITERATION):

    HEAD CHANGE    HEAD CHANGE    HEAD CHANGE    HEAD CHANGE    HEAD CHANGE 
   LAYER,ROW,COL  LAYER,ROW,COL  LAYER,ROW,COL  LAYER,ROW,COL  LAYER,ROW,COL
 ---------------------------------------------------------------------------
  1   11.19      0  0.1371      0  0.1492E-02  0  0.2408E-04  1  0.3582E-06
   (  1, 18, 10)  (  1, 17, 11)  (  1, 24,  6)  (  1, 25,  5)  (  1, 23,  6)

 MAXIMUM RESIDUAL FOR EACH ITERATION (1 INDICATES THE FIRST INNER ITERATION):

    RESIDUAL       RESIDUAL       RESIDUAL       RESIDUAL       RESIDUAL    
   LAYER,ROW,COL  LAYER,ROW,COL  LAYER,ROW,COL  LAYER,ROW,COL  LAYER,ROW,COL
 ---------------------------------------------------------------------------
  1 -0.3866E-04  0 -0.5067E-06  0 -0.8275E-08  0 -0.1369E-09  1 -0.2779E-11
   (  1, 17, 11)  (  1, 24,  6)  (  1, 25,  5)  (  1, 23,  6)  (  1, 24,  5)


 UBUDSV SAVING "      ZETASRF  1" ON UNIT170 AT TIME STEP 25, STRESS PERIOD    2


                      VOLUMETRIC SWI ZONE BUDGET FOR ENTIRE MODEL
                     AT END OF TIME STEP   25 IN STRESS PERIOD   2
                                      ZONE     1
  -----------------------------------------------------------------------------------

        CUMULATIVE VOLUMES      L**3       RATES FOR THIS TIME STEP      L**3/T
        ------------------                 ------------------------

              IN:                                      IN:
              ---                                      ---
             BOUNDARIES =   598653184.0000            BOUNDARIES =           0.2201
          CONSTANT HEAD =           0.0000         CONSTANT HEAD =           0.0000
            ZONE CHANGE =   137350032.0000           ZONE CHANGE =           0.1148
       ZONE CHG TIP/TOE =     5325967.0000      ZONE CHG TIP/TOE =       9.6688E-03
            ZONE MIXING =           0.0000           ZONE MIXING =           0.0000

               TOTAL IN =   741329152.0000              TOTAL IN =           0.3445

             OUT:                                     OUT:
             ----                                     ----
             BOUNDARIES =   631786048.0000            BOUNDARIES =           0.3290
          CONSTANT HEAD =           0.0000         CONSTANT HEAD =           0.0000
            ZONE CHANGE =    25064062.0000           ZONE CHANGE =       6.2067E-03
       ZONE CHG TIP/TOE =     4725651.0000      ZONE CHG TIP/TOE =       6.6084E-03
            ZONE MIXING =      262992.2500           ZONE MIXING =       9.3218E-03

              TOTAL OUT =   661838720.0000             TOTAL OUT =           0.3511

               IN - OUT =    79490432.0000              IN - OUT =      -6.5686E-03

    PERCENT DISCREPANCY =          11.33     PERCENT DISCREPANCY =          -1.89



                      VOLUMETRIC SWI ZONE BUDGET FOR ENTIRE MODEL
                     AT END OF TIME STEP   25 IN STRESS PERIOD   2
                                      ZONE     2
  -----------------------------------------------------------------------------------

        CUMULATIVE VOLUMES      L**3       RATES FOR THIS TIME STEP      L**3/T
        ------------------                 ------------------------

              IN:                                      IN:
              ---                                      ---
             BOUNDARIES =    19599712.0000            BOUNDARIES =       8.6240E-02
          CONSTANT HEAD =           0.0000         CONSTANT HEAD =           0.0000
            ZONE CHANGE =    21794088.0000           ZONE CHANGE =       5.1366E-03
       ZONE CHG TIP/TOE =     6382696.0000      ZONE CHG TIP/TOE =       1.8690E-02
            ZONE MIXING =      262992.2500           ZONE MIXING =       9.3218E-03

               TOTAL IN =    48039488.0000              TOTAL IN =           0.1194

             OUT:                                     OUT:
             ----                                     ----
             BOUNDARIES =    29860924.0000            BOUNDARIES =       4.8668E-02
          CONSTANT HEAD =           0.0000         CONSTANT HEAD =           0.0000
            ZONE CHANGE =    22233876.0000           ZONE CHANGE =       6.7763E-02
       ZONE CHG TIP/TOE =     2912071.0000      ZONE CHG TIP/TOE =       8.2409E-03
            ZONE MIXING =           0.0000           ZONE MIXING =           0.0000

              TOTAL OUT =    55006872.0000             TOTAL OUT =           0.1247

               IN - OUT =    -6967384.0000              IN - OUT =      -5.2841E-03

    PERCENT DISCREPANCY =         -13.52     PERCENT DISCREPANCY =          -4.33


 HEAD WILL BE SAVED ON UNIT   37 AT END OF TIME STEP   25, STRESS PERIOD    2

 DRAWDOWN WILL BE SAVED ON UNIT   38 AT END OF TIME STEP   25, STRESS PERIOD    2
1
  VOLUMETRIC BUDGET FOR ENTIRE MODEL AT END OF TIME STEP   25, STRESS PERIOD   2
  ------------------------------------------------------------------------------

     CUMULATIVE VOLUMES      L**3       RATES FOR THIS TIME STEP      L**3/T
     ------------------                 ------------------------

           IN:                                      IN:
           ---                                      ---
             STORAGE =    43388788.0000               STORAGE =       7.1409E-02
       CONSTANT HEAD =           0.0000         CONSTANT HEAD =           0.0000
               WELLS =           0.0000                 WELLS =           0.0000
       RIVER LEAKAGE =   126792368.0000         RIVER LEAKAGE =       4.2000E-02
                  ET =           0.0000                    ET =           0.0000
     HEAD DEP BOUNDS =    26525212.0000       HEAD DEP BOUNDS =       9.3058E-02
            RECHARGE =   498382304.0000              RECHARGE =           0.1925
          SWIADDTOCH =           0.0000            SWIADDTOCH =           0.0000

            TOTAL IN =   695088640.0000              TOTAL IN =           0.3990

          OUT:                                     OUT:
          ----                                     ----
             STORAGE =        7788.2817               STORAGE =       5.3937E-05
       CONSTANT HEAD =           0.0000         CONSTANT HEAD =           0.0000
               WELLS =   154179504.0000                 WELLS =           0.3880
       RIVER LEAKAGE =    21630804.0000         RIVER LEAKAGE =           0.0000
                  ET =   166413648.0000                    ET =           0.0000
     HEAD DEP BOUNDS =   352869824.0000       HEAD DEP BOUNDS =       1.0956E-02
            RECHARGE =           0.0000              RECHARGE =           0.0000
          SWIADDTOCH =           0.0000            SWIADDTOCH =           0.0000

           TOTAL OUT =   695101568.0000             TOTAL OUT =           0.3990

            IN - OUT =      -12928.0000              IN - OUT =      -8.9407E-08

 PERCENT DISCREPANCY =          -0.00     PERCENT DISCREPANCY =          -0.00






         TIME SUMMARY AT END OF TIME STEP   25 IN STRESS PERIOD    2
                    SECONDS     MINUTES      HOURS       DAYS        YEARS
                    -----------------------------------------------------------
   TIME STEP LENGTH 1.57680E+07 2.62800E+05  4380.0      182.50     0.49966    
 STRESS PERIOD TIME 3.94200E+08 6.57000E+06 1.09500E+05  4562.5      12.491    
         TOTAL TIME 3.54780E+09 5.91300E+07 9.85500E+05  41063.      112.42    
1
 
 SOLVING FOR HEAD 

 CELL CONVERSIONS FOR ITER.=  2  LAYER=  1  STEP= 26  PERIOD=   2   (ROW,COL)
    DRY( 18, 38)   
    10 CALLS TO PCG ROUTINE FOR TIME STEP  26 IN STRESS PERIOD    2
    26 TOTAL ITERATIONS

 MAXIMUM HEAD CHANGE FOR EACH ITERATION (1 INDICATES THE FIRST INNER ITERATION):

    HEAD CHANGE    HEAD CHANGE    HEAD CHANGE    HEAD CHANGE    HEAD CHANGE 
   LAYER,ROW,COL  LAYER,ROW,COL  LAYER,ROW,COL  LAYER,ROW,COL  LAYER,ROW,COL
 ---------------------------------------------------------------------------
  1 -0.3602      0  0.1263      0 -0.3552E-01  0 -0.8606E-02  0 -0.1947E-02
   (  2, 17, 10)  (  2, 19, 10)  (  2, 16,  8)  (  2, 15,  9)  (  2, 23, 14)
  0 -0.9033E-03  1 -0.4577E-01  0  0.9539E-02  0  0.2467E-02  0  0.7460E-03
   (  1, 17,  8)  (  2, 18, 38)  (  2, 18, 44)  (  2, 18, 44)  (  2, 18, 44)
  1 -0.2044E-01  0 -0.1497E-02  0 -0.3051E-03  1  0.1164E-01  0  0.5168E-03
   (  2, 18, 44)  (  2, 18, 44)  (  2, 18, 44)  (  2, 18, 44)  (  2, 18, 44)
  1 -0.6260E-02  0 -0.3302E-03  1  0.3843E-02  0  0.3476E-03  1 -0.2586E-02
   (  2, 18, 44)  (  2, 55, 30)  (  2, 55, 30)  (  2, 55, 30)  (  2, 55, 30)
  0 -0.2841E-03  1  0.1740E-02  0  0.2001E-03  1 -0.1173E-02  0 -0.1353E-03
   (  2, 55, 30)  (  2, 55, 30)  (  2, 55, 30)  (  2, 55, 30)  (  2, 55, 30)
  1  0.7938E-03
   (  2, 55, 30)

 MAXIMUM RESIDUAL FOR EACH ITERATION (1 INDICATES THE FIRST INNER ITERATION):

    RESIDUAL       RESIDUAL       RESIDUAL       RESIDUAL       RESIDUAL    
   LAYER,ROW,COL  LAYER,ROW,COL  LAYER,ROW,COL  LAYER,ROW,COL  LAYER,ROW,COL
 ---------------------------------------------------------------------------
  1 -0.6852E-03  0  0.1952E-03  0  0.8291E-04  0  0.2240E-04  0  0.7684E-05
   (  2, 20, 10)  (  2, 16,  9)  (  2, 18,  7)  (  1, 17,  8)  (  1, 17,  8)
  0 -0.2288E-05  1  0.2883E-04  0  0.1118E-04  0  0.2843E-05  0 -0.6795E-06
   (  2, 17,  8)  (  2, 17, 39)  (  2, 19, 37)  (  2, 19, 37)  (  2, 17, 38)
  1 -0.1163E-05  0  0.5198E-06  0  0.1022E-06  1 -0.7855E-06  0 -0.1379E-06
   (  2, 19, 42)  (  2, 18, 43)  (  2, 18, 43)  (  2, 18, 43)  (  2, 18, 43)
  1  0.4293E-06  0  0.2048E-06  1 -0.2680E-06  0 -0.1444E-06  1 -0.1856E-06
   (  2, 18, 43)  (  2, 18, 43)  (  2, 18, 43)  (  2, 18, 43)  (  2, 53, 31)
  0  0.1061E-06  1  0.1300E-06  0 -0.7394E-07  1 -0.8894E-07  0  0.5111E-07
   (  2, 54, 30)  (  2, 53, 31)  (  2, 54, 30)  (  2, 53, 31)  (  2, 54, 30)
  1  0.6102E-07
   (  2, 53, 31)



 OUTPUT CONTROL FOR STRESS PERIOD    2   TIME STEP   26
    SAVE HEAD FOR ALL LAYERS
    SAVE DRAWDOWN FOR ALL LAYERS
    SAVE BUDGET
    PRINT BUDGET
 UBDSV1 SAVING "         STORAGE" ON UNIT   9 AT TIME STEP 26, STRESS PERIOD   2
 UBDSV2 SAVING "   CONSTANT HEAD" ON UNIT   9 AT TIME STEP 26, STRESS PERIOD   2
 UBDSV1 SAVING "FLOW RIGHT FACE " ON UNIT   9 AT TIME STEP 26, STRESS PERIOD   2
 UBDSV1 SAVING "FLOW FRONT FACE " ON UNIT   9 AT TIME STEP 26, STRESS PERIOD   2
 UBDSV1 SAVING "FLOW LOWER FACE " ON UNIT   9 AT TIME STEP 26, STRESS PERIOD   2
 UBDSV4 SAVING "           WELLS" ON UNIT   9 AT TIME STEP 26, STRESS PERIOD   2
 UBDSV4 SAVING "   RIVER LEAKAGE" ON UNIT   9 AT TIME STEP 26, STRESS PERIOD   2
 UBDSV3 SAVING "              ET" ON UNIT   9 AT TIME STEP 26, STRESS PERIOD   2
 UBDSV4 SAVING " HEAD DEP BOUNDS" ON UNIT   9 AT TIME STEP 26, STRESS PERIOD   2
 UBDSV3 SAVING "        RECHARGE" ON UNIT   9 AT TIME STEP 26, STRESS PERIOD   2
 SOLVING FOR ZETA FOR LAYER     1 ZONE     2
     2 CALLS TO PCG ROUTINE FOR TIME STEP  26 IN STRESS PERIOD    2
     4 TOTAL ITERATIONS

 MAXIMUM HEAD CHANGE FOR EACH ITERATION (1 INDICATES THE FIRST INNER ITERATION):

    HEAD CHANGE    HEAD CHANGE    HEAD CHANGE    HEAD CHANGE    HEAD CHANGE 
   LAYER,ROW,COL  LAYER,ROW,COL  LAYER,ROW,COL  LAYER,ROW,COL  LAYER,ROW,COL
 ---------------------------------------------------------------------------
  1   25.93      0  0.6696E-01  0  0.9175E-03  1 -0.6773E-05
   (  1, 18, 10)  (  1, 14,  3)  (  1, 13,  4)  (  1, 21,  8)

 MAXIMUM RESIDUAL FOR EACH ITERATION (1 INDICATES THE FIRST INNER ITERATION):

    RESIDUAL       RESIDUAL       RESIDUAL       RESIDUAL       RESIDUAL    
   LAYER,ROW,COL  LAYER,ROW,COL  LAYER,ROW,COL  LAYER,ROW,COL  LAYER,ROW,COL
 ---------------------------------------------------------------------------
  1 -0.2088E-04  0 -0.3126E-06  0 -0.2022E-08  1 -0.2289E-10
   (  1, 14,  3)  (  1, 13,  4)  (  1, 23,  4)  (  1, 24,  3)


 SOLVING FOR ZETA FOR LAYER     2 ZONE     2
     2 CALLS TO PCG ROUTINE FOR TIME STEP  26 IN STRESS PERIOD    2
     5 TOTAL ITERATIONS

 MAXIMUM HEAD CHANGE FOR EACH ITERATION (1 INDICATES THE FIRST INNER ITERATION):

    HEAD CHANGE    HEAD CHANGE    HEAD CHANGE    HEAD CHANGE    HEAD CHANGE 
   LAYER,ROW,COL  LAYER,ROW,COL  LAYER,ROW,COL  LAYER,ROW,COL  LAYER,ROW,COL
 ---------------------------------------------------------------------------
  1   7.375      0  0.8128E-01  0  0.1608E-02  0  0.2110E-04  1  0.4095E-06
   (  1, 14,  8)  (  1, 23,  7)  (  1, 24,  6)  (  1, 25,  5)  (  1, 14,  8)

 MAXIMUM RESIDUAL FOR EACH ITERATION (1 INDICATES THE FIRST INNER ITERATION):

    RESIDUAL       RESIDUAL       RESIDUAL       RESIDUAL       RESIDUAL    
   LAYER,ROW,COL  LAYER,ROW,COL  LAYER,ROW,COL  LAYER,ROW,COL  LAYER,ROW,COL
 ---------------------------------------------------------------------------
  1 -0.2636E-04  0 -0.5858E-06  0 -0.7541E-08  0 -0.1093E-09  1 -0.1932E-11
   (  1, 23,  7)  (  1, 24,  6)  (  1, 25,  5)  (  1, 23,  6)  (  1, 24,  5)


 UBUDSV SAVING "      ZETASRF  1" ON UNIT170 AT TIME STEP 26, STRESS PERIOD    2


                      VOLUMETRIC SWI ZONE BUDGET FOR ENTIRE MODEL
                     AT END OF TIME STEP   26 IN STRESS PERIOD   2
                                      ZONE     1
  -----------------------------------------------------------------------------------

        CUMULATIVE VOLUMES      L**3       RATES FOR THIS TIME STEP      L**3/T
        ------------------                 ------------------------

              IN:                                      IN:
              ---                                      ---
             BOUNDARIES =   602115072.0000            BOUNDARIES =           0.2195
          CONSTANT HEAD =           0.0000         CONSTANT HEAD =           0.0000
            ZONE CHANGE =   139075664.0000           ZONE CHANGE =           0.1094
       ZONE CHG TIP/TOE =     5416871.0000      ZONE CHG TIP/TOE =       5.7651E-03
            ZONE MIXING =           0.0000           ZONE MIXING =           0.0000

               TOTAL IN =   746607616.0000              TOTAL IN =           0.3348

             OUT:                                     OUT:
             ----                                     ----
             BOUNDARIES =   637279680.0000            BOUNDARIES =           0.3484
          CONSTANT HEAD =           0.0000         CONSTANT HEAD =           0.0000
            ZONE CHANGE =    25165072.0000           ZONE CHANGE =       6.4060E-03
       ZONE CHG TIP/TOE =     4773409.0000      ZONE CHG TIP/TOE =       3.0288E-03
            ZONE MIXING =      262992.2500           ZONE MIXING =           0.0000

              TOTAL OUT =   667481152.0000             TOTAL OUT =           0.3578

               IN - OUT =    79126464.0000              IN - OUT =      -2.3084E-02

    PERCENT DISCREPANCY =          11.19     PERCENT DISCREPANCY =          -6.67



                      VOLUMETRIC SWI ZONE BUDGET FOR ENTIRE MODEL
                     AT END OF TIME STEP   26 IN STRESS PERIOD   2
                                      ZONE     2
  -----------------------------------------------------------------------------------

        CUMULATIVE VOLUMES      L**3       RATES FOR THIS TIME STEP      L**3/T
        ------------------                 ------------------------

              IN:                                      IN:
              ---                                      ---
             BOUNDARIES =    20986718.0000            BOUNDARIES =       8.7963E-02
          CONSTANT HEAD =           0.0000         CONSTANT HEAD =           0.0000
            ZONE CHANGE =    21893474.0000           ZONE CHANGE =       6.3031E-03
       ZONE CHG TIP/TOE =     6678380.0000      ZONE CHG TIP/TOE =       1.8752E-02
            ZONE MIXING =      262992.2500           ZONE MIXING =           0.0000

               TOTAL IN =    49821564.0000              TOTAL IN =           0.1130

             OUT:                                     OUT:
             ----                                     ----
             BOUNDARIES =    30315964.0000            BOUNDARIES =       2.8858E-02
          CONSTANT HEAD =           0.0000         CONSTANT HEAD =           0.0000
            ZONE CHANGE =    23297396.0000           ZONE CHANGE =       6.7448E-02
       ZONE CHG TIP/TOE =     2994287.7500      ZONE CHG TIP/TOE =       5.2142E-03
            ZONE MIXING =           0.0000           ZONE MIXING =           0.0000

              TOTAL OUT =    56607648.0000             TOTAL OUT =           0.1015

               IN - OUT =    -6786084.0000              IN - OUT =       1.1498E-02

    PERCENT DISCREPANCY =         -12.75     PERCENT DISCREPANCY =          10.72


 HEAD WILL BE SAVED ON UNIT   37 AT END OF TIME STEP   26, STRESS PERIOD    2

 DRAWDOWN WILL BE SAVED ON UNIT   38 AT END OF TIME STEP   26, STRESS PERIOD    2
1
  VOLUMETRIC BUDGET FOR ENTIRE MODEL AT END OF TIME STEP   26, STRESS PERIOD   2
  ------------------------------------------------------------------------------

     CUMULATIVE VOLUMES      L**3       RATES FOR THIS TIME STEP      L**3/T
     ------------------                 ------------------------

           IN:                                      IN:
           ---                                      ---
             STORAGE =    44489840.0000               STORAGE =       6.9828E-02
       CONSTANT HEAD =           0.0000         CONSTANT HEAD =           0.0000
               WELLS =           0.0000                 WELLS =           0.0000
       RIVER LEAKAGE =   127454624.0000         RIVER LEAKAGE =       4.2000E-02
                  ET =           0.0000                    ET =           0.0000
     HEAD DEP BOUNDS =    28014824.0000       HEAD DEP BOUNDS =       9.4471E-02
            RECHARGE =   501415296.0000              RECHARGE =           0.1924
          SWIADDTOCH =           0.0000            SWIADDTOCH =           0.0000

            TOTAL IN =   701374592.0000              TOTAL IN =           0.3987

          OUT:                                     OUT:
          ----                                     ----
             STORAGE =        9056.0801               STORAGE =       8.0403E-05
       CONSTANT HEAD =           0.0000         CONSTANT HEAD =           0.0000
               WELLS =   160297488.0000                 WELLS =           0.3880
       RIVER LEAKAGE =    21630804.0000         RIVER LEAKAGE =           0.0000
                  ET =   166413648.0000                    ET =           0.0000
     HEAD DEP BOUNDS =   353036480.0000       HEAD DEP BOUNDS =       1.0570E-02
            RECHARGE =           0.0000              RECHARGE =           0.0000
          SWIADDTOCH =           0.0000            SWIADDTOCH =           0.0000

           TOTAL OUT =   701387456.0000             TOTAL OUT =           0.3987

            IN - OUT =      -12864.0000              IN - OUT =      -5.9605E-08

 PERCENT DISCREPANCY =          -0.00     PERCENT DISCREPANCY =          -0.00






         TIME SUMMARY AT END OF TIME STEP   26 IN STRESS PERIOD    2
                    SECONDS     MINUTES      HOURS       DAYS        YEARS
                    -----------------------------------------------------------
   TIME STEP LENGTH 1.57680E+07 2.62800E+05  4380.0      182.50     0.49966    
 STRESS PERIOD TIME 4.09968E+08 6.83280E+06 1.13880E+05  4745.0      12.991    
         TOTAL TIME 3.56357E+09 5.93928E+07 9.89880E+05  41245.      112.92    
1
 
 SOLVING FOR HEAD 

 CELL CONVERSIONS FOR ITER.=  2  LAYER=  1  STEP= 27  PERIOD=   2   (ROW,COL)
    DRY( 14, 34)   
    13 CALLS TO PCG ROUTINE FOR TIME STEP  27 IN STRESS PERIOD    2
    32 TOTAL ITERATIONS

 MAXIMUM HEAD CHANGE FOR EACH ITERATION (1 INDICATES THE FIRST INNER ITERATION):

    HEAD CHANGE    HEAD CHANGE    HEAD CHANGE    HEAD CHANGE    HEAD CHANGE 
   LAYER,ROW,COL  LAYER,ROW,COL  LAYER,ROW,COL  LAYER,ROW,COL  LAYER,ROW,COL
 ---------------------------------------------------------------------------
  1 -0.3391      0 -0.9648E-01  0 -0.2425E-01  0 -0.5968E-02  0 -0.1544E-02
   (  1, 17, 10)  (  2, 22,  7)  (  2, 19,  8)  (  2, 17, 10)  (  2, 34,  9)
  0 -0.6513E-03  1 -0.5209E-01  0  0.9186E-02  0  0.2703E-02  0  0.8973E-03
   (  1, 35,  8)  (  2, 14, 34)  (  2, 18, 44)  (  2, 18, 44)  (  2, 18, 44)
  1 -0.2243E-01  0 -0.1686E-02  0 -0.3289E-03  1  0.1540E-01  0  0.7213E-03
   (  2, 18, 44)  (  2, 18, 44)  (  2, 18, 44)  (  2, 18, 44)  (  2, 18, 44)
  1 -0.1012E-01  0 -0.4664E-03  1  0.6336E-02  0  0.4501E-03  1 -0.3962E-02
   (  2, 18, 44)  (  2, 18, 44)  (  2, 18, 44)  (  2, 18, 44)  (  2, 55, 30)
  0 -0.3608E-03  1  0.3107E-02  0  0.3100E-03  1 -0.2449E-02  0 -0.2400E-03
   (  2, 55, 30)  (  2, 55, 30)  (  2, 55, 30)  (  2, 55, 30)  (  2, 55, 30)
  1  0.1927E-02  0  0.1863E-03  1 -0.1522E-02  0 -0.1401E-03  1  0.1201E-02
   (  2, 55, 30)  (  2, 55, 30)  (  2, 55, 30)  (  2, 55, 30)  (  2, 55, 30)
  0  0.1079E-03  1 -0.9493E-03
   (  2, 55, 30)  (  2, 55, 30)

 MAXIMUM RESIDUAL FOR EACH ITERATION (1 INDICATES THE FIRST INNER ITERATION):

    RESIDUAL       RESIDUAL       RESIDUAL       RESIDUAL       RESIDUAL    
   LAYER,ROW,COL  LAYER,ROW,COL  LAYER,ROW,COL  LAYER,ROW,COL  LAYER,ROW,COL
 ---------------------------------------------------------------------------
  1  0.5475E-03  0 -0.1525E-03  0  0.5789E-04  0  0.1428E-04  0  0.4710E-05
   (  2, 22,  7)  (  1, 15,  5)  (  2, 17, 10)  (  2, 17, 10)  (  1, 19,  9)
  0 -0.1278E-05  1  0.3534E-04  0  0.1477E-04  0  0.3763E-05  0 -0.7726E-06
   (  2, 17,  6)  (  2, 14, 34)  (  2, 15, 33)  (  2, 15, 33)  (  2, 16, 33)
  1  0.1247E-05  0  0.5585E-06  0  0.9961E-07  1 -0.1026E-05  0 -0.1393E-06
   (  2, 18, 43)  (  2, 18, 43)  (  2, 18, 43)  (  2, 18, 43)  (  2, 18, 43)
  1  0.6772E-06  0  0.2226E-06  1 -0.4680E-06  0 -0.2332E-06  1  0.3267E-06
   (  2, 18, 43)  (  2, 18, 43)  (  2, 18, 43)  (  2, 18, 43)  (  2, 18, 43)
  0  0.1615E-06  1  0.2085E-06  0 -0.1160E-06  1 -0.1692E-06  0  0.9077E-07
   (  2, 18, 43)  (  2, 53, 31)  (  2, 54, 30)  (  2, 53, 31)  (  2, 54, 30)
  1  0.1334E-06  0 -0.7376E-07  1 -0.1067E-06  0  0.5740E-07  1  0.8403E-07
   (  2, 53, 31)  (  2, 54, 30)  (  2, 53, 31)  (  2, 54, 30)  (  2, 53, 31)
  0 -0.4595E-07  1 -0.6681E-07
   (  2, 54, 30)  (  2, 53, 31)



 OUTPUT CONTROL FOR STRESS PERIOD    2   TIME STEP   27
    SAVE HEAD FOR ALL LAYERS
    SAVE DRAWDOWN FOR ALL LAYERS
    SAVE BUDGET
    PRINT BUDGET
 UBDSV1 SAVING "         STORAGE" ON UNIT   9 AT TIME STEP 27, STRESS PERIOD   2
 UBDSV2 SAVING "   CONSTANT HEAD" ON UNIT   9 AT TIME STEP 27, STRESS PERIOD   2
 UBDSV1 SAVING "FLOW RIGHT FACE " ON UNIT   9 AT TIME STEP 27, STRESS PERIOD   2
 UBDSV1 SAVING "FLOW FRONT FACE " ON UNIT   9 AT TIME STEP 27, STRESS PERIOD   2
 UBDSV1 SAVING "FLOW LOWER FACE " ON UNIT   9 AT TIME STEP 27, STRESS PERIOD   2
 UBDSV4 SAVING "           WELLS" ON UNIT   9 AT TIME STEP 27, STRESS PERIOD   2
 UBDSV4 SAVING "   RIVER LEAKAGE" ON UNIT   9 AT TIME STEP 27, STRESS PERIOD   2
 UBDSV3 SAVING "              ET" ON UNIT   9 AT TIME STEP 27, STRESS PERIOD   2
 UBDSV4 SAVING " HEAD DEP BOUNDS" ON UNIT   9 AT TIME STEP 27, STRESS PERIOD   2
 UBDSV3 SAVING "        RECHARGE" ON UNIT   9 AT TIME STEP 27, STRESS PERIOD   2
 SOLVING FOR ZETA FOR LAYER     1 ZONE     2
     2 CALLS TO PCG ROUTINE FOR TIME STEP  27 IN STRESS PERIOD    2
     4 TOTAL ITERATIONS

 MAXIMUM HEAD CHANGE FOR EACH ITERATION (1 INDICATES THE FIRST INNER ITERATION):

    HEAD CHANGE    HEAD CHANGE    HEAD CHANGE    HEAD CHANGE    HEAD CHANGE 
   LAYER,ROW,COL  LAYER,ROW,COL  LAYER,ROW,COL  LAYER,ROW,COL  LAYER,ROW,COL
 ---------------------------------------------------------------------------
  1   11.70      0  0.4894E-01  0  0.8813E-03  1  0.1673E-04
   (  1, 15,  5)  (  1, 13,  3)  (  1, 21,  5)  (  1, 22,  4)

 MAXIMUM RESIDUAL FOR EACH ITERATION (1 INDICATES THE FIRST INNER ITERATION):

    RESIDUAL       RESIDUAL       RESIDUAL       RESIDUAL       RESIDUAL    
   LAYER,ROW,COL  LAYER,ROW,COL  LAYER,ROW,COL  LAYER,ROW,COL  LAYER,ROW,COL
 ---------------------------------------------------------------------------
  1 -0.1615E-04  0 -0.2982E-06  0 -0.6706E-08  1 -0.1090E-09
   (  1, 13,  3)  (  1, 21,  5)  (  1, 22,  4)  (  1, 21,  5)


 SOLVING FOR ZETA FOR LAYER     2 ZONE     2
     2 CALLS TO PCG ROUTINE FOR TIME STEP  27 IN STRESS PERIOD    2
     5 TOTAL ITERATIONS

 MAXIMUM HEAD CHANGE FOR EACH ITERATION (1 INDICATES THE FIRST INNER ITERATION):

    HEAD CHANGE    HEAD CHANGE    HEAD CHANGE    HEAD CHANGE    HEAD CHANGE 
   LAYER,ROW,COL  LAYER,ROW,COL  LAYER,ROW,COL  LAYER,ROW,COL  LAYER,ROW,COL
 ---------------------------------------------------------------------------
  1   8.094      0  0.6519E-01  0  0.1499E-02  0  0.2197E-04  1  0.3194E-06
   (  1, 14,  8)  (  1, 15,  7)  (  1, 24,  6)  (  1, 25,  5)  (  1, 23,  6)

 MAXIMUM RESIDUAL FOR EACH ITERATION (1 INDICATES THE FIRST INNER ITERATION):

    RESIDUAL       RESIDUAL       RESIDUAL       RESIDUAL       RESIDUAL    
   LAYER,ROW,COL  LAYER,ROW,COL  LAYER,ROW,COL  LAYER,ROW,COL  LAYER,ROW,COL
 ---------------------------------------------------------------------------
  1 -0.2497E-04  0 -0.5170E-06  0 -0.7443E-08  0 -0.1219E-09  1 -0.2621E-11
   (  1, 13,  6)  (  1, 24,  6)  (  1, 25,  5)  (  1, 23,  6)  (  1, 24,  5)


 UBUDSV SAVING "      ZETASRF  1" ON UNIT170 AT TIME STEP 27, STRESS PERIOD    2


                      VOLUMETRIC SWI ZONE BUDGET FOR ENTIRE MODEL
                     AT END OF TIME STEP   27 IN STRESS PERIOD   2
                                      ZONE     1
  -----------------------------------------------------------------------------------

        CUMULATIVE VOLUMES      L**3       RATES FOR THIS TIME STEP      L**3/T
        ------------------                 ------------------------

              IN:                                      IN:
              ---                                      ---
             BOUNDARIES =   605576512.0000            BOUNDARIES =           0.2195
          CONSTANT HEAD =           0.0000         CONSTANT HEAD =           0.0000
            ZONE CHANGE =   140635312.0000           ZONE CHANGE =       9.8912E-02
       ZONE CHG TIP/TOE =     5585523.5000      ZONE CHG TIP/TOE =       1.0696E-02
            ZONE MIXING =           0.0000           ZONE MIXING =           0.0000

               TOTAL IN =   751797376.0000              TOTAL IN =           0.3291

             OUT:                                     OUT:
             ----                                     ----
             BOUNDARIES =   642227520.0000            BOUNDARIES =           0.3138
          CONSTANT HEAD =           0.0000         CONSTANT HEAD =           0.0000
            ZONE CHANGE =    25320816.0000           ZONE CHANGE =       9.8772E-03
       ZONE CHG TIP/TOE =     4941392.5000      ZONE CHG TIP/TOE =       1.0653E-02
            ZONE MIXING =      262992.2500           ZONE MIXING =           0.0000

              TOTAL OUT =   672752704.0000             TOTAL OUT =           0.3343

               IN - OUT =    79044672.0000              IN - OUT =      -5.1888E-03

    PERCENT DISCREPANCY =          11.10     PERCENT DISCREPANCY =          -1.56



                      VOLUMETRIC SWI ZONE BUDGET FOR ENTIRE MODEL
                     AT END OF TIME STEP   27 IN STRESS PERIOD   2
                                      ZONE     2
  -----------------------------------------------------------------------------------

        CUMULATIVE VOLUMES      L**3       RATES FOR THIS TIME STEP      L**3/T
        ------------------                 ------------------------

              IN:                                      IN:
              ---                                      ---
             BOUNDARIES =    22384674.0000            BOUNDARIES =       8.8658E-02
          CONSTANT HEAD =           0.0000         CONSTANT HEAD =           0.0000
            ZONE CHANGE =    21998960.0000           ZONE CHANGE =       6.6899E-03
       ZONE CHG TIP/TOE =     6906702.0000      ZONE CHG TIP/TOE =       1.4480E-02
            ZONE MIXING =      262992.2500           ZONE MIXING =           0.0000

               TOTAL IN =    51553328.0000              TOTAL IN =           0.1098

             OUT:                                     OUT:
             ----                                     ----
             BOUNDARIES =    31310884.0000            BOUNDARIES =       6.3097E-02
          CONSTANT HEAD =           0.0000         CONSTANT HEAD =           0.0000
            ZONE CHANGE =    24020388.0000           ZONE CHANGE =       4.5852E-02
       ZONE CHG TIP/TOE =     3106287.7500      ZONE CHG TIP/TOE =       7.1030E-03
            ZONE MIXING =           0.0000           ZONE MIXING =           0.0000

              TOTAL OUT =    58437560.0000             TOTAL OUT =           0.1161

               IN - OUT =    -6884232.0000              IN - OUT =      -6.2245E-03

    PERCENT DISCREPANCY =         -12.52     PERCENT DISCREPANCY =          -5.51


 HEAD WILL BE SAVED ON UNIT   37 AT END OF TIME STEP   27, STRESS PERIOD    2

 DRAWDOWN WILL BE SAVED ON UNIT   38 AT END OF TIME STEP   27, STRESS PERIOD    2
1
  VOLUMETRIC BUDGET FOR ENTIRE MODEL AT END OF TIME STEP   27, STRESS PERIOD   2
  ------------------------------------------------------------------------------

     CUMULATIVE VOLUMES      L**3       RATES FOR THIS TIME STEP      L**3/T
     ------------------                 ------------------------

           IN:                                      IN:
           ---                                      ---
             STORAGE =    45573788.0000               STORAGE =       6.8743E-02
       CONSTANT HEAD =           0.0000         CONSTANT HEAD =           0.0000
               WELLS =           0.0000                 WELLS =           0.0000
       RIVER LEAKAGE =   128116880.0000         RIVER LEAKAGE =       4.2000E-02
                  ET =           0.0000                    ET =           0.0000
     HEAD DEP BOUNDS =    29517968.0000       HEAD DEP BOUNDS =       9.5329E-02
            RECHARGE =   504445312.0000              RECHARGE =           0.1922
          SWIADDTOCH =           0.0000            SWIADDTOCH =           0.0000

            TOTAL IN =   707653952.0000              TOTAL IN =           0.3982

          OUT:                                     OUT:
          ----                                     ----
             STORAGE =        9651.2129               STORAGE =       3.7743E-05
       CONSTANT HEAD =           0.0000         CONSTANT HEAD =           0.0000
               WELLS =   166415472.0000                 WELLS =           0.3880
       RIVER LEAKAGE =    21630804.0000         RIVER LEAKAGE =           0.0000
                  ET =   166413648.0000                    ET =           0.0000
     HEAD DEP BOUNDS =   353197248.0000       HEAD DEP BOUNDS =       1.0196E-02
            RECHARGE =           0.0000              RECHARGE =           0.0000
          SWIADDTOCH =           0.0000            SWIADDTOCH =           0.0000

           TOTAL OUT =   707666816.0000             TOTAL OUT =           0.3982

            IN - OUT =      -12864.0000              IN - OUT =      -5.9605E-08

 PERCENT DISCREPANCY =          -0.00     PERCENT DISCREPANCY =          -0.00






         TIME SUMMARY AT END OF TIME STEP   27 IN STRESS PERIOD    2
                    SECONDS     MINUTES      HOURS       DAYS        YEARS
                    -----------------------------------------------------------
   TIME STEP LENGTH 1.57680E+07 2.62800E+05  4380.0      182.50     0.49966    
 STRESS PERIOD TIME 4.25736E+08 7.09560E+06 1.18260E+05  4927.5      13.491    
         TOTAL TIME 3.57934E+09 5.96556E+07 9.94260E+05  41428.      113.42    
1
 
 SOLVING FOR HEAD 

 CELL CONVERSIONS FOR ITER.=  2  LAYER=  1  STEP= 28  PERIOD=   2   (ROW,COL)
    DRY( 35, 34)   DRY( 36, 33)   
    21 CALLS TO PCG ROUTINE FOR TIME STEP  28 IN STRESS PERIOD    2
    48 TOTAL ITERATIONS

 MAXIMUM HEAD CHANGE FOR EACH ITERATION (1 INDICATES THE FIRST INNER ITERATION):

    HEAD CHANGE    HEAD CHANGE    HEAD CHANGE    HEAD CHANGE    HEAD CHANGE 
   LAYER,ROW,COL  LAYER,ROW,COL  LAYER,ROW,COL  LAYER,ROW,COL  LAYER,ROW,COL
 ---------------------------------------------------------------------------
  1  0.2983      0 -0.1334      0  0.2623E-01  0 -0.6134E-02  0  0.1676E-02
   (  2, 20,  9)  (  2, 20, 10)  (  1, 20, 10)  (  2, 22, 12)  (  2,  5, 11)
  0 -0.5658E-03  1 -0.5168E-01  0 -0.8563E-02  0  0.1673E-02  0  0.5417E-03
   (  2,  5, 11)  (  2, 36, 33)  (  2, 34, 36)  (  2, 18, 44)  (  2, 18, 44)
  1 -0.2152E-01  0 -0.1827E-02  0 -0.3866E-03  1  0.1758E-01  0  0.8509E-03
   (  2, 18, 44)  (  2, 18, 44)  (  2, 18, 44)  (  2, 18, 44)  (  2, 18, 44)
  1 -0.1353E-01  0 -0.6748E-03  1  0.9938E-02  0  0.7498E-03  1 -0.7272E-02
   (  2, 18, 44)  (  2, 18, 44)  (  2, 18, 44)  (  2, 18, 44)  (  2, 18, 44)
  0 -0.6548E-03  1  0.5299E-02  0  0.5162E-03  1 -0.3881E-02  0 -0.3748E-03
   (  2, 18, 44)  (  2, 18, 44)  (  2, 18, 44)  (  2, 18, 44)  (  2, 18, 44)
  1  0.3231E-02  0  0.3110E-03  1 -0.2887E-02  0 -0.2640E-03  1  0.2581E-02
   (  2, 55, 30)  (  2, 55, 30)  (  2, 55, 30)  (  2, 55, 30)  (  2, 55, 30)
  0  0.2258E-03  1 -0.2314E-02  0 -0.1925E-03  1  0.2074E-02  0  0.1664E-03
   (  2, 55, 30)  (  2, 55, 30)  (  2, 55, 30)  (  2, 55, 30)  (  2, 55, 30)
  1 -0.1860E-02  0 -0.1443E-03  1  0.1667E-02  0  0.1266E-03  1 -0.1496E-02
   (  2, 55, 30)  (  2, 55, 30)  (  2, 55, 30)  (  2, 55, 30)  (  2, 55, 30)
  0 -0.1114E-03  1  0.1343E-02  0  0.9886E-04  1 -0.1206E-02  0 -0.8786E-04
   (  2, 55, 30)  (  2, 55, 30)  (  2, 55, 30)  (  2, 55, 30)  (  2, 55, 30)
  1  0.1082E-02  0  0.7845E-04  1 -0.9709E-03
   (  2, 55, 30)  (  2, 55, 30)  (  2, 55, 30)

 MAXIMUM RESIDUAL FOR EACH ITERATION (1 INDICATES THE FIRST INNER ITERATION):

    RESIDUAL       RESIDUAL       RESIDUAL       RESIDUAL       RESIDUAL    
   LAYER,ROW,COL  LAYER,ROW,COL  LAYER,ROW,COL  LAYER,ROW,COL  LAYER,ROW,COL
 ---------------------------------------------------------------------------
  1  0.8559E-03  0 -0.2133E-03  0  0.7090E-04  0  0.1623E-04  0  0.5026E-05
   (  2, 20, 10)  (  1, 20, 10)  (  2, 16,  7)  (  2, 18,  8)  (  2, 17, 10)
  0  0.1780E-05  1  0.3749E-04  0  0.1008E-04  0  0.2969E-05  0  0.1032E-05
   (  2, 17, 10)  (  2, 35, 34)  (  2, 37, 32)  (  2, 37, 32)  (  2, 34, 35)
  1 -0.1152E-05  0  0.5719E-06  0  0.1171E-06  1 -0.1170E-05  0 -0.2022E-06
   (  2, 19, 42)  (  2, 18, 43)  (  2, 18, 43)  (  2, 18, 43)  (  2, 18, 43)
  1  0.9058E-06  0  0.3541E-06  1 -0.7353E-06  0 -0.3714E-06  1  0.5708E-06
   (  2, 18, 43)  (  2, 18, 43)  (  2, 18, 43)  (  2, 18, 43)  (  2, 18, 43)
  0  0.2964E-06  1 -0.4254E-06  0 -0.2334E-06  1  0.3209E-06  0  0.1717E-06
   (  2, 18, 43)  (  2, 18, 43)  (  2, 18, 43)  (  2, 18, 43)  (  2, 18, 43)
  1 -0.2391E-06  0 -0.1281E-06  1 -0.1905E-06  0  0.1040E-06  1  0.1704E-06
   (  2, 18, 43)  (  2, 18, 43)  (  2, 53, 31)  (  2, 54, 30)  (  2, 53, 31)
  0 -0.9313E-07  1 -0.1529E-06  0  0.8240E-07  1  0.1370E-06  0 -0.7372E-07
   (  2, 54, 30)  (  2, 53, 31)  (  2, 54, 30)  (  2, 53, 31)  (  2, 54, 30)
  1 -0.1228E-06  0  0.6551E-07  1  0.1100E-06  0 -0.5864E-07  1 -0.9865E-07
   (  2, 53, 31)  (  2, 54, 30)  (  2, 53, 31)  (  2, 54, 30)  (  2, 53, 31)
  0  0.5231E-07  1  0.8851E-07  0 -0.4690E-07  1 -0.7940E-07  0  0.4197E-07
   (  2, 54, 30)  (  2, 53, 31)  (  2, 54, 30)  (  2, 53, 31)  (  2, 54, 30)
  1  0.7124E-07  0 -0.3765E-07  1 -0.6390E-07
   (  2, 53, 31)  (  2, 54, 30)  (  2, 53, 31)



 OUTPUT CONTROL FOR STRESS PERIOD    2   TIME STEP   28
    SAVE HEAD FOR ALL LAYERS
    SAVE DRAWDOWN FOR ALL LAYERS
    SAVE BUDGET
    PRINT BUDGET
 UBDSV1 SAVING "         STORAGE" ON UNIT   9 AT TIME STEP 28, STRESS PERIOD   2
 UBDSV2 SAVING "   CONSTANT HEAD" ON UNIT   9 AT TIME STEP 28, STRESS PERIOD   2
 UBDSV1 SAVING "FLOW RIGHT FACE " ON UNIT   9 AT TIME STEP 28, STRESS PERIOD   2
 UBDSV1 SAVING "FLOW FRONT FACE " ON UNIT   9 AT TIME STEP 28, STRESS PERIOD   2
 UBDSV1 SAVING "FLOW LOWER FACE " ON UNIT   9 AT TIME STEP 28, STRESS PERIOD   2
 UBDSV4 SAVING "           WELLS" ON UNIT   9 AT TIME STEP 28, STRESS PERIOD   2
 UBDSV4 SAVING "   RIVER LEAKAGE" ON UNIT   9 AT TIME STEP 28, STRESS PERIOD   2
 UBDSV3 SAVING "              ET" ON UNIT   9 AT TIME STEP 28, STRESS PERIOD   2
 UBDSV4 SAVING " HEAD DEP BOUNDS" ON UNIT   9 AT TIME STEP 28, STRESS PERIOD   2
 UBDSV3 SAVING "        RECHARGE" ON UNIT   9 AT TIME STEP 28, STRESS PERIOD   2
 SOLVING FOR ZETA FOR LAYER     1 ZONE     2
     2 CALLS TO PCG ROUTINE FOR TIME STEP  28 IN STRESS PERIOD    2
     4 TOTAL ITERATIONS

 MAXIMUM HEAD CHANGE FOR EACH ITERATION (1 INDICATES THE FIRST INNER ITERATION):

    HEAD CHANGE    HEAD CHANGE    HEAD CHANGE    HEAD CHANGE    HEAD CHANGE 
   LAYER,ROW,COL  LAYER,ROW,COL  LAYER,ROW,COL  LAYER,ROW,COL  LAYER,ROW,COL
 ---------------------------------------------------------------------------
  1   12.20      0  0.5114E-01  0  0.8607E-03  1  0.1853E-04
   (  1, 16,  9)  (  1, 21,  8)  (  1, 21,  5)  (  1, 22,  4)

 MAXIMUM RESIDUAL FOR EACH ITERATION (1 INDICATES THE FIRST INNER ITERATION):

    RESIDUAL       RESIDUAL       RESIDUAL       RESIDUAL       RESIDUAL    
   LAYER,ROW,COL  LAYER,ROW,COL  LAYER,ROW,COL  LAYER,ROW,COL  LAYER,ROW,COL
 ---------------------------------------------------------------------------
  1 -0.1663E-04  0 -0.2911E-06  0 -0.7380E-08  1 -0.1250E-09
   (  1, 13,  3)  (  1, 21,  5)  (  1, 22,  4)  (  1, 21,  5)


 SOLVING FOR ZETA FOR LAYER     2 ZONE     2
     2 CALLS TO PCG ROUTINE FOR TIME STEP  28 IN STRESS PERIOD    2
     5 TOTAL ITERATIONS

 MAXIMUM HEAD CHANGE FOR EACH ITERATION (1 INDICATES THE FIRST INNER ITERATION):

    HEAD CHANGE    HEAD CHANGE    HEAD CHANGE    HEAD CHANGE    HEAD CHANGE 
   LAYER,ROW,COL  LAYER,ROW,COL  LAYER,ROW,COL  LAYER,ROW,COL  LAYER,ROW,COL
 ---------------------------------------------------------------------------
  1   11.22      0  0.7512E-01  0  0.1172E-02  0  0.1434E-04  1  0.4878E-06
   (  1, 21,  8)  (  1, 15,  7)  (  1, 16,  6)  (  1, 24,  5)  (  1, 14,  8)

 MAXIMUM RESIDUAL FOR EACH ITERATION (1 INDICATES THE FIRST INNER ITERATION):

    RESIDUAL       RESIDUAL       RESIDUAL       RESIDUAL       RESIDUAL    
   LAYER,ROW,COL  LAYER,ROW,COL  LAYER,ROW,COL  LAYER,ROW,COL  LAYER,ROW,COL
 ---------------------------------------------------------------------------
  1 -0.2718E-04  0 -0.3358E-06  0 -0.5070E-08  0 -0.8659E-10  1  0.2286E-11
   (  1, 15,  7)  (  1, 16,  6)  (  1, 24,  5)  (  1, 23,  6)  (  1, 23,  6)


 UBUDSV SAVING "      ZETASRF  1" ON UNIT170 AT TIME STEP 28, STRESS PERIOD    2


                      VOLUMETRIC SWI ZONE BUDGET FOR ENTIRE MODEL
                     AT END OF TIME STEP   28 IN STRESS PERIOD   2
                                      ZONE     1
  -----------------------------------------------------------------------------------

        CUMULATIVE VOLUMES      L**3       RATES FOR THIS TIME STEP      L**3/T
        ------------------                 ------------------------

              IN:                                      IN:
              ---                                      ---
             BOUNDARIES =   609035008.0000            BOUNDARIES =           0.2193
          CONSTANT HEAD =           0.0000         CONSTANT HEAD =           0.0000
            ZONE CHANGE =   142202096.0000           ZONE CHANGE =       9.9364E-02
       ZONE CHG TIP/TOE =     5692902.5000      ZONE CHG TIP/TOE =       6.8099E-03
            ZONE MIXING =           0.0000           ZONE MIXING =           0.0000

               TOTAL IN =   756929984.0000              TOTAL IN =           0.3255

             OUT:                                     OUT:
             ----                                     ----
             BOUNDARIES =   647402944.0000            BOUNDARIES =           0.3282
          CONSTANT HEAD =           0.0000         CONSTANT HEAD =           0.0000
            ZONE CHANGE =    25462026.0000           ZONE CHANGE =       8.9554E-03
       ZONE CHG TIP/TOE =     5041227.0000      ZONE CHG TIP/TOE =       6.3315E-03
            ZONE MIXING =      262992.2500           ZONE MIXING =           0.0000

              TOTAL OUT =   678169216.0000             TOTAL OUT =           0.3435

               IN - OUT =    78760768.0000              IN - OUT =      -1.7999E-02

    PERCENT DISCREPANCY =          10.98     PERCENT DISCREPANCY =          -5.38



                      VOLUMETRIC SWI ZONE BUDGET FOR ENTIRE MODEL
                     AT END OF TIME STEP   28 IN STRESS PERIOD   2
                                      ZONE     2
  -----------------------------------------------------------------------------------

        CUMULATIVE VOLUMES      L**3       RATES FOR THIS TIME STEP      L**3/T
        ------------------                 ------------------------

              IN:                                      IN:
              ---                                      ---
             BOUNDARIES =    23798882.0000            BOUNDARIES =       8.9688E-02
          CONSTANT HEAD =           0.0000         CONSTANT HEAD =           0.0000
            ZONE CHANGE =    22119798.0000           ZONE CHANGE =       7.6635E-03
       ZONE CHG TIP/TOE =     7097275.0000      ZONE CHG TIP/TOE =       1.2086E-02
            ZONE MIXING =      262992.2500           ZONE MIXING =           0.0000

               TOTAL IN =    53278944.0000              TOTAL IN =           0.1094

             OUT:                                     OUT:
             ----                                     ----
             BOUNDARIES =    32072284.0000            BOUNDARIES =       4.8288E-02
          CONSTANT HEAD =           0.0000         CONSTANT HEAD =           0.0000
            ZONE CHANGE =    24795548.0000           ZONE CHANGE =       4.9160E-02
       ZONE CHG TIP/TOE =     3188301.7500      ZONE CHG TIP/TOE =       5.2013E-03
            ZONE MIXING =           0.0000           ZONE MIXING =           0.0000

              TOTAL OUT =    60056136.0000             TOTAL OUT =           0.1026

               IN - OUT =    -6777192.0000              IN - OUT =       6.7888E-03

    PERCENT DISCREPANCY =         -11.96     PERCENT DISCREPANCY =           6.40


 HEAD WILL BE SAVED ON UNIT   37 AT END OF TIME STEP   28, STRESS PERIOD    2

 DRAWDOWN WILL BE SAVED ON UNIT   38 AT END OF TIME STEP   28, STRESS PERIOD    2
1
  VOLUMETRIC BUDGET FOR ENTIRE MODEL AT END OF TIME STEP   28, STRESS PERIOD   2
  ------------------------------------------------------------------------------

     CUMULATIVE VOLUMES      L**3       RATES FOR THIS TIME STEP      L**3/T
     ------------------                 ------------------------

           IN:                                      IN:
           ---                                      ---
             STORAGE =    46640140.0000               STORAGE =       6.7628E-02
       CONSTANT HEAD =           0.0000         CONSTANT HEAD =           0.0000
               WELLS =           0.0000                 WELLS =           0.0000
       RIVER LEAKAGE =   128779136.0000         RIVER LEAKAGE =       4.2000E-02
                  ET =           0.0000                    ET =           0.0000
     HEAD DEP BOUNDS =    31040396.0000       HEAD DEP BOUNDS =       9.6552E-02
            RECHARGE =   507469312.0000              RECHARGE =           0.1918
          SWIADDTOCH =           0.0000            SWIADDTOCH =           0.0000

            TOTAL IN =   713928960.0000              TOTAL IN =           0.3980

          OUT:                                     OUT:
          ----                                     ----
             STORAGE =       11886.9746               STORAGE =       1.4179E-04
       CONSTANT HEAD =           0.0000         CONSTANT HEAD =           0.0000
               WELLS =   172533456.0000                 WELLS =           0.3880
       RIVER LEAKAGE =    21630804.0000         RIVER LEAKAGE =           0.0000
                  ET =   166413648.0000                    ET =           0.0000
     HEAD DEP BOUNDS =   353352064.0000       HEAD DEP BOUNDS =       9.8185E-03
            RECHARGE =           0.0000              RECHARGE =           0.0000
          SWIADDTOCH =           0.0000            SWIADDTOCH =           0.0000

           TOTAL OUT =   713941888.0000             TOTAL OUT =           0.3980

            IN - OUT =      -12928.0000              IN - OUT =      -1.1921E-07

 PERCENT DISCREPANCY =          -0.00     PERCENT DISCREPANCY =          -0.00






         TIME SUMMARY AT END OF TIME STEP   28 IN STRESS PERIOD    2
                    SECONDS     MINUTES      HOURS       DAYS        YEARS
                    -----------------------------------------------------------
   TIME STEP LENGTH 1.57680E+07 2.62800E+05  4380.0      182.50     0.49966    
 STRESS PERIOD TIME 4.41504E+08 7.35840E+06 1.22640E+05  5110.0      13.990    
         TOTAL TIME 3.59511E+09 5.99184E+07 9.98640E+05  41610.      113.92    
1
 
 SOLVING FOR HEAD 

 CELL CONVERSIONS FOR ITER.=  2  LAYER=  1  STEP= 29  PERIOD=   2   (ROW,COL)
    DRY( 16, 37)   DRY( 48, 24)   

 CELL CONVERSIONS FOR ITER.=  2  LAYER=  2  STEP= 29  PERIOD=   2   (ROW,COL)
    DRY( 55, 30)   

 CELL CONVERSIONS FOR ITER.=  7  LAYER=  1  STEP= 29  PERIOD=   2   (ROW,COL)
    DRY( 38, 32)   
    24 CALLS TO PCG ROUTINE FOR TIME STEP  29 IN STRESS PERIOD    2
    55 TOTAL ITERATIONS

 MAXIMUM HEAD CHANGE FOR EACH ITERATION (1 INDICATES THE FIRST INNER ITERATION):

    HEAD CHANGE    HEAD CHANGE    HEAD CHANGE    HEAD CHANGE    HEAD CHANGE 
   LAYER,ROW,COL  LAYER,ROW,COL  LAYER,ROW,COL  LAYER,ROW,COL  LAYER,ROW,COL
 ---------------------------------------------------------------------------
  1 -0.3808      0  0.1278      0 -0.2502E-01  0 -0.5612E-02  0 -0.1665E-02
   (  2, 15,  8)  (  2, 15,  8)  (  2, 14,  7)  (  2, 12,  9)  (  2, 34,  9)
  0 -0.6562E-03  1 -0.1114      0  0.2525E-01  0  0.4251E-02  0  0.8394E-03
   (  1, 35,  8)  (  2, 16, 37)  (  2, 16, 37)  (  2, 16, 37)  (  2, 16, 37)
  1 -0.2084E-01  0 -0.5137E-03  1  0.1899E-01  0  0.6606E-03  1 -0.1736E-01
   (  2, 18, 44)  (  2, 18, 43)  (  2, 18, 44)  (  2, 18, 43)  (  2, 18, 44)
  0 -0.6055E-03  1  0.1583E-01  0  0.5512E-03  1 -0.4648E-01  0 -0.4915E-02
   (  2, 18, 43)  (  2, 18, 44)  (  2, 18, 43)  (  2, 38, 32)  (  2, 36, 33)
  0 -0.1234E-02  0 -0.2267E-03  1  0.1180E-01  0  0.8445E-03  1 -0.1021E-01
   (  2, 37, 33)  (  2, 18, 44)  (  2, 18, 44)  (  2, 18, 44)  (  2, 18, 44)
  0 -0.8176E-03  1  0.8772E-02  0  0.7732E-03  1 -0.7515E-02  0 -0.7010E-03
   (  2, 18, 44)  (  2, 18, 44)  (  2, 18, 44)  (  2, 18, 44)  (  2, 18, 44)
  1  0.6419E-02  0  0.6258E-03  1 -0.5491E-02  0 -0.5408E-03  1  0.4686E-02
   (  2, 18, 44)  (  2, 18, 44)  (  2, 18, 44)  (  2, 18, 44)  (  2, 18, 44)
  0  0.4704E-03  1 -0.4004E-02  0 -0.4022E-03  1  0.3416E-02  0  0.3465E-03
   (  2, 18, 44)  (  2, 18, 44)  (  2, 18, 44)  (  2, 18, 44)  (  2, 18, 44)
  1 -0.2916E-02  0 -0.2956E-03  1  0.2488E-02  0  0.2536E-03  1 -0.2123E-02
   (  2, 18, 44)  (  2, 18, 44)  (  2, 18, 44)  (  2, 18, 44)  (  2, 18, 44)
  0 -0.2162E-03  1  0.1810E-02  0  0.1850E-03  1 -0.1545E-02  0 -0.1577E-03
   (  2, 18, 44)  (  2, 18, 44)  (  2, 18, 44)  (  2, 18, 44)  (  2, 18, 44)
  1  0.1318E-02  0  0.1349E-03  1 -0.1125E-02  0 -0.1150E-03  1  0.9593E-03
   (  2, 18, 44)  (  2, 18, 44)  (  2, 18, 44)  (  2, 18, 44)  (  2, 18, 44)

 MAXIMUM RESIDUAL FOR EACH ITERATION (1 INDICATES THE FIRST INNER ITERATION):

    RESIDUAL       RESIDUAL       RESIDUAL       RESIDUAL       RESIDUAL    
   LAYER,ROW,COL  LAYER,ROW,COL  LAYER,ROW,COL  LAYER,ROW,COL  LAYER,ROW,COL
 ---------------------------------------------------------------------------
  1 -0.8952E-03  0 -0.1685E-03  0 -0.5841E-04  0  0.1474E-04  0  0.4963E-05
   (  2, 15,  8)  (  1, 20,  6)  (  1, 20,  6)  (  2, 20,  6)  (  2, 20,  6)
  0  0.1492E-05  1  0.1303E-02  0  0.1514E-03  0  0.3053E-04  0  0.7429E-05
   (  2, 20,  9)  (  1, 38, 32)  (  1, 38, 32)  (  1, 38, 32)  (  1, 38, 32)
  1  0.8085E-05  0  0.1535E-05  1  0.5806E-04  0  0.1059E-04  1  0.1887E-03
   (  1, 38, 32)  (  1, 38, 32)  (  1, 38, 32)  (  1, 38, 32)  (  1, 38, 32)
  0  0.3861E-04  1 -0.5201E-04  0 -0.1025E-04  1  0.2775E-04  0  0.9752E-05
   (  1, 38, 32)  (  2, 38, 32)  (  2, 38, 32)  (  2, 38, 32)  (  2, 39, 31)
  0  0.1711E-05  0  0.5999E-06  1 -0.6742E-06  0 -0.3625E-06  1  0.7549E-06
   (  2, 37, 33)  (  2, 40, 30)  (  2, 18, 43)  (  2, 18, 43)  (  2, 18, 43)
  0  0.3205E-06  1 -0.6354E-06  0 -0.3376E-06  1  0.5668E-06  0  0.2805E-06
   (  2, 18, 43)  (  2, 18, 43)  (  2, 18, 43)  (  2, 18, 43)  (  2, 18, 43)
  1 -0.4764E-06  0 -0.2576E-06  1  0.4134E-06  0  0.2154E-06  1 -0.3503E-06
   (  2, 18, 43)  (  2, 18, 43)  (  2, 18, 43)  (  2, 18, 43)  (  2, 18, 43)
  0 -0.1899E-06  1  0.3008E-06  0  0.1601E-06  1 -0.2560E-06  0 -0.1389E-06
   (  2, 18, 43)  (  2, 18, 43)  (  2, 18, 43)  (  2, 18, 43)  (  2, 18, 43)
  1  0.2188E-06  0  0.1177E-06  1 -0.1866E-06  0 -0.1013E-06  1  0.1592E-06
   (  2, 18, 43)  (  2, 18, 43)  (  2, 18, 43)  (  2, 18, 43)  (  2, 18, 43)
  0  0.8607E-07  1 -0.1358E-06  0 -0.7375E-07  1  0.1158E-06  0  0.6277E-07
   (  2, 18, 43)  (  2, 18, 43)  (  2, 18, 43)  (  2, 18, 43)  (  2, 18, 43)
  1 -0.9887E-07  0 -0.5370E-07  1  0.8432E-07  0  0.4576E-07  1 -0.7195E-07
   (  2, 18, 43)  (  2, 18, 43)  (  2, 18, 43)  (  2, 18, 43)  (  2, 18, 43)



 OUTPUT CONTROL FOR STRESS PERIOD    2   TIME STEP   29
    SAVE HEAD FOR ALL LAYERS
    SAVE DRAWDOWN FOR ALL LAYERS
    SAVE BUDGET
    PRINT BUDGET
 UBDSV1 SAVING "         STORAGE" ON UNIT   9 AT TIME STEP 29, STRESS PERIOD   2
 UBDSV2 SAVING "   CONSTANT HEAD" ON UNIT   9 AT TIME STEP 29, STRESS PERIOD   2
 UBDSV1 SAVING "FLOW RIGHT FACE " ON UNIT   9 AT TIME STEP 29, STRESS PERIOD   2
 UBDSV1 SAVING "FLOW FRONT FACE " ON UNIT   9 AT TIME STEP 29, STRESS PERIOD   2
 UBDSV1 SAVING "FLOW LOWER FACE " ON UNIT   9 AT TIME STEP 29, STRESS PERIOD   2
 UBDSV4 SAVING "           WELLS" ON UNIT   9 AT TIME STEP 29, STRESS PERIOD   2
 UBDSV4 SAVING "   RIVER LEAKAGE" ON UNIT   9 AT TIME STEP 29, STRESS PERIOD   2
 UBDSV3 SAVING "              ET" ON UNIT   9 AT TIME STEP 29, STRESS PERIOD   2
 UBDSV4 SAVING " HEAD DEP BOUNDS" ON UNIT   9 AT TIME STEP 29, STRESS PERIOD   2
 UBDSV3 SAVING "        RECHARGE" ON UNIT   9 AT TIME STEP 29, STRESS PERIOD   2
 SOLVING FOR ZETA FOR LAYER     1 ZONE     2
     2 CALLS TO PCG ROUTINE FOR TIME STEP  29 IN STRESS PERIOD    2
     4 TOTAL ITERATIONS

 MAXIMUM HEAD CHANGE FOR EACH ITERATION (1 INDICATES THE FIRST INNER ITERATION):

    HEAD CHANGE    HEAD CHANGE    HEAD CHANGE    HEAD CHANGE    HEAD CHANGE 
   LAYER,ROW,COL  LAYER,ROW,COL  LAYER,ROW,COL  LAYER,ROW,COL  LAYER,ROW,COL
 ---------------------------------------------------------------------------
  1   27.91      0  0.1195      0  0.7251E-03  1  0.1749E-04
   (  1, 18, 10)  (  1, 17, 11)  (  1, 22,  5)  (  1, 22,  4)

 MAXIMUM RESIDUAL FOR EACH ITERATION (1 INDICATES THE FIRST INNER ITERATION):

    RESIDUAL       RESIDUAL       RESIDUAL       RESIDUAL       RESIDUAL    
   LAYER,ROW,COL  LAYER,ROW,COL  LAYER,ROW,COL  LAYER,ROW,COL  LAYER,ROW,COL
 ---------------------------------------------------------------------------
  1 -0.3242E-04  0 -0.2261E-06  0 -0.6785E-08  1 -0.1209E-09
   (  1, 17, 11)  (  1, 21,  5)  (  1, 22,  4)  (  1, 21,  5)


 SOLVING FOR ZETA FOR LAYER     2 ZONE     2
     2 CALLS TO PCG ROUTINE FOR TIME STEP  29 IN STRESS PERIOD    2
     4 TOTAL ITERATIONS

 MAXIMUM HEAD CHANGE FOR EACH ITERATION (1 INDICATES THE FIRST INNER ITERATION):

    HEAD CHANGE    HEAD CHANGE    HEAD CHANGE    HEAD CHANGE    HEAD CHANGE 
   LAYER,ROW,COL  LAYER,ROW,COL  LAYER,ROW,COL  LAYER,ROW,COL  LAYER,ROW,COL
 ---------------------------------------------------------------------------
  1   7.399      0  0.5582E-01  0  0.7800E-03  1  0.1052E-04
   (  1, 15,  9)  (  1, 22,  7)  (  1, 14,  5)  (  1, 13,  6)

 MAXIMUM RESIDUAL FOR EACH ITERATION (1 INDICATES THE FIRST INNER ITERATION):

    RESIDUAL       RESIDUAL       RESIDUAL       RESIDUAL       RESIDUAL    
   LAYER,ROW,COL  LAYER,ROW,COL  LAYER,ROW,COL  LAYER,ROW,COL  LAYER,ROW,COL
 ---------------------------------------------------------------------------
  1 -0.1919E-04  0 -0.2694E-06  0 -0.4443E-08  1 -0.6442E-10
   (  1, 22,  7)  (  1, 14,  5)  (  1, 13,  6)  (  1, 14,  5)


 UBUDSV SAVING "      ZETASRF  1" ON UNIT170 AT TIME STEP 29, STRESS PERIOD    2


                      VOLUMETRIC SWI ZONE BUDGET FOR ENTIRE MODEL
                     AT END OF TIME STEP   29 IN STRESS PERIOD   2
                                      ZONE     1
  -----------------------------------------------------------------------------------

        CUMULATIVE VOLUMES      L**3       RATES FOR THIS TIME STEP      L**3/T
        ------------------                 ------------------------

              IN:                                      IN:
              ---                                      ---
             BOUNDARIES =   612486784.0000            BOUNDARIES =           0.2189
          CONSTANT HEAD =           0.0000         CONSTANT HEAD =           0.0000
            ZONE CHANGE =   143699600.0000           ZONE CHANGE =       9.4971E-02
       ZONE CHG TIP/TOE =     5821646.0000      ZONE CHG TIP/TOE =       8.1649E-03
            ZONE MIXING =           0.0000           ZONE MIXING =           0.0000

               TOTAL IN =   762008064.0000              TOTAL IN =           0.3220

             OUT:                                     OUT:
             ----                                     ----
             BOUNDARIES =   652493696.0000            BOUNDARIES =           0.3229
          CONSTANT HEAD =           0.0000         CONSTANT HEAD =           0.0000
            ZONE CHANGE =    25523236.0000           ZONE CHANGE =       3.8819E-03
       ZONE CHG TIP/TOE =     5132306.0000      ZONE CHG TIP/TOE =       5.7762E-03
            ZONE MIXING =      332180.3125           ZONE MIXING =       4.3879E-03

              TOTAL OUT =   683481408.0000             TOTAL OUT =           0.3369

               IN - OUT =    78526656.0000              IN - OUT =      -1.4852E-02

    PERCENT DISCREPANCY =          10.87     PERCENT DISCREPANCY =          -4.51



                      VOLUMETRIC SWI ZONE BUDGET FOR ENTIRE MODEL
                     AT END OF TIME STEP   29 IN STRESS PERIOD   2
                                      ZONE     2
  -----------------------------------------------------------------------------------

        CUMULATIVE VOLUMES      L**3       RATES FOR THIS TIME STEP      L**3/T
        ------------------                 ------------------------

              IN:                                      IN:
              ---                                      ---
             BOUNDARIES =    25227108.0000            BOUNDARIES =       9.0577E-02
          CONSTANT HEAD =           0.0000         CONSTANT HEAD =           0.0000
            ZONE CHANGE =    22176436.0000           ZONE CHANGE =       3.5920E-03
       ZONE CHG TIP/TOE =     7440877.5000      ZONE CHG TIP/TOE =       2.1791E-02
            ZONE MIXING =      332180.3125           ZONE MIXING =       4.3879E-03

               TOTAL IN =    55176600.0000              TOTAL IN =           0.1203

             OUT:                                     OUT:
             ----                                     ----
             BOUNDARIES =    32912524.0000            BOUNDARIES =       5.3288E-02
          CONSTANT HEAD =           0.0000         CONSTANT HEAD =           0.0000
            ZONE CHANGE =    25673070.0000           ZONE CHANGE =       5.5652E-02
       ZONE CHG TIP/TOE =     3308589.5000      ZONE CHG TIP/TOE =       7.6286E-03
            ZONE MIXING =           0.0000           ZONE MIXING =           0.0000

              TOTAL OUT =    61894184.0000             TOTAL OUT =           0.1166

               IN - OUT =    -6717584.0000              IN - OUT =       3.7801E-03

    PERCENT DISCREPANCY =         -11.48     PERCENT DISCREPANCY =           3.19


 HEAD WILL BE SAVED ON UNIT   37 AT END OF TIME STEP   29, STRESS PERIOD    2

 DRAWDOWN WILL BE SAVED ON UNIT   38 AT END OF TIME STEP   29, STRESS PERIOD    2
1
  VOLUMETRIC BUDGET FOR ENTIRE MODEL AT END OF TIME STEP   29, STRESS PERIOD   2
  ------------------------------------------------------------------------------

     CUMULATIVE VOLUMES      L**3       RATES FOR THIS TIME STEP      L**3/T
     ------------------                 ------------------------

           IN:                                      IN:
           ---                                      ---
             STORAGE =    47692552.0000               STORAGE =       6.6744E-02
       CONSTANT HEAD =           0.0000         CONSTANT HEAD =           0.0000
               WELLS =           0.0000                 WELLS =           0.0000
       RIVER LEAKAGE =   129441392.0000         RIVER LEAKAGE =       4.2000E-02
                  ET =           0.0000                    ET =           0.0000
     HEAD DEP BOUNDS =    32579138.0000       HEAD DEP BOUNDS =       9.7586E-02
            RECHARGE =   510484320.0000              RECHARGE =           0.1912
          SWIADDTOCH =           0.0000            SWIADDTOCH =           0.0000

            TOTAL IN =   720197376.0000              TOTAL IN =           0.3975

          OUT:                                     OUT:
          ----                                     ----
             STORAGE =       13317.8398               STORAGE =       9.0745E-05
       CONSTANT HEAD =           0.0000         CONSTANT HEAD =           0.0000
               WELLS =   178651440.0000                 WELLS =           0.3880
       RIVER LEAKAGE =    21630804.0000         RIVER LEAKAGE =           0.0000
                  ET =   166413648.0000                    ET =           0.0000
     HEAD DEP BOUNDS =   353501056.0000       HEAD DEP BOUNDS =       9.4493E-03
            RECHARGE =           0.0000              RECHARGE =           0.0000
          SWIADDTOCH =           0.0000            SWIADDTOCH =           0.0000

           TOTAL OUT =   720210240.0000             TOTAL OUT =           0.3975

            IN - OUT =      -12864.0000              IN - OUT =      -8.9407E-08

 PERCENT DISCREPANCY =          -0.00     PERCENT DISCREPANCY =          -0.00






         TIME SUMMARY AT END OF TIME STEP   29 IN STRESS PERIOD    2
                    SECONDS     MINUTES      HOURS       DAYS        YEARS
                    -----------------------------------------------------------
   TIME STEP LENGTH 1.57680E+07 2.62800E+05  4380.0      182.50     0.49966    
 STRESS PERIOD TIME 4.57272E+08 7.62120E+06 1.27020E+05  5292.5      14.490    
         TOTAL TIME 3.61087E+09 6.01812E+07 1.00302E+06  41793.      114.42    
1
 
 SOLVING FOR HEAD 

 CELL CONVERSIONS FOR ITER.=  2  LAYER=  1  STEP= 30  PERIOD=   2   (ROW,COL)
    DRY( 21, 42)   DRY( 41, 34)   DRY( 46, 21)   

 CELL CONVERSIONS FOR ITER.=  2  LAYER=  2  STEP= 30  PERIOD=   2   (ROW,COL)
    DRY( 18, 44)   
    11 CALLS TO PCG ROUTINE FOR TIME STEP  30 IN STRESS PERIOD    2
    28 TOTAL ITERATIONS

 MAXIMUM HEAD CHANGE FOR EACH ITERATION (1 INDICATES THE FIRST INNER ITERATION):

    HEAD CHANGE    HEAD CHANGE    HEAD CHANGE    HEAD CHANGE    HEAD CHANGE 
   LAYER,ROW,COL  LAYER,ROW,COL  LAYER,ROW,COL  LAYER,ROW,COL  LAYER,ROW,COL
 ---------------------------------------------------------------------------
  1 -0.3473      0 -0.8739E-01  0 -0.2140E-01  0 -0.5821E-02  0 -0.1716E-02
   (  1, 19,  7)  (  2, 15,  7)  (  1, 20, 10)  (  2, 16,  6)  (  2,  6, 10)
  0  0.5423E-03  1 -0.6749E-01  0 -0.6998E-02  0 -0.1758E-02  0 -0.5621E-03
   (  2,  7, 11)  (  2, 46, 21)  (  2, 23, 41)  (  2, 20, 43)  (  2, 20, 43)
  1 -0.7387E-02  0 -0.1190E-02  0 -0.2151E-03  1  0.2851E-02  0  0.9048E-04
   (  2, 54, 36)  (  2, 54, 36)  (  2, 54, 36)  (  2, 54, 36)  (  2, 54, 36)
  1 -0.1541E-02  0 -0.4971E-04  1  0.1433E-02  0  0.1927E-04  1 -0.1329E-02
   (  2, 58, 32)  (  2, 58, 32)  (  2, 58, 32)  (  2, 58, 32)  (  2, 58, 32)
  0 -0.1143E-04  1  0.1231E-02  0  0.9104E-05  1 -0.1142E-02  0 -0.8136E-05
   (  2, 58, 32)  (  2, 58, 32)  (  2, 58, 32)  (  2, 58, 32)  (  2, 58, 32)
  1  0.1059E-02  0  0.7742E-05  1 -0.9820E-03
   (  2, 58, 32)  (  2, 57, 32)  (  2, 58, 32)

 MAXIMUM RESIDUAL FOR EACH ITERATION (1 INDICATES THE FIRST INNER ITERATION):

    RESIDUAL       RESIDUAL       RESIDUAL       RESIDUAL       RESIDUAL    
   LAYER,ROW,COL  LAYER,ROW,COL  LAYER,ROW,COL  LAYER,ROW,COL  LAYER,ROW,COL
 ---------------------------------------------------------------------------
  1  0.8320E-03  0  0.1503E-03  0 -0.6385E-04  0 -0.1496E-04  0 -0.4819E-05
   (  2, 15,  7)  (  2, 16,  6)  (  2, 20,  9)  (  2, 17,  6)  (  2, 20,  6)
  0 -0.1445E-05  1  0.4258E-04  0  0.1358E-04  0  0.3299E-05  0  0.9330E-06
   (  2, 15,  7)  (  2, 45, 22)  (  2, 45, 22)  (  2, 22, 41)  (  2, 22, 41)
  1 -0.6578E-06  0 -0.2409E-06  0  0.6446E-07  1  0.1376E-06  0  0.7765E-07
   (  2, 18, 11)  (  2, 20,  9)  (  2, 17, 10)  (  2, 52, 37)  (  2, 52, 37)
  1 -0.6728E-07  0 -0.4085E-07  1  0.3015E-07  0  0.1642E-07  1 -0.2004E-07
   (  2, 52, 37)  (  2, 52, 37)  (  2, 52, 37)  (  2, 52, 37)  (  2, 56, 33)
  0 -0.1280E-07  1  0.1862E-07  0  0.1115E-07  1 -0.1715E-07  0 -0.1061E-07
   (  2, 56, 33)  (  2, 56, 33)  (  2, 56, 33)  (  2, 56, 33)  (  2, 56, 33)
  1  0.1595E-07  0  0.9569E-08  1 -0.1475E-07
   (  2, 56, 33)  (  2, 56, 33)  (  2, 56, 33)



 OUTPUT CONTROL FOR STRESS PERIOD    2   TIME STEP   30
    SAVE HEAD FOR ALL LAYERS
    SAVE DRAWDOWN FOR ALL LAYERS
    SAVE BUDGET
    PRINT BUDGET
 UBDSV1 SAVING "         STORAGE" ON UNIT   9 AT TIME STEP 30, STRESS PERIOD   2
 UBDSV2 SAVING "   CONSTANT HEAD" ON UNIT   9 AT TIME STEP 30, STRESS PERIOD   2
 UBDSV1 SAVING "FLOW RIGHT FACE " ON UNIT   9 AT TIME STEP 30, STRESS PERIOD   2
 UBDSV1 SAVING "FLOW FRONT FACE " ON UNIT   9 AT TIME STEP 30, STRESS PERIOD   2
 UBDSV1 SAVING "FLOW LOWER FACE " ON UNIT   9 AT TIME STEP 30, STRESS PERIOD   2
 UBDSV4 SAVING "           WELLS" ON UNIT   9 AT TIME STEP 30, STRESS PERIOD   2
 UBDSV4 SAVING "   RIVER LEAKAGE" ON UNIT   9 AT TIME STEP 30, STRESS PERIOD   2
 UBDSV3 SAVING "              ET" ON UNIT   9 AT TIME STEP 30, STRESS PERIOD   2
 UBDSV4 SAVING " HEAD DEP BOUNDS" ON UNIT   9 AT TIME STEP 30, STRESS PERIOD   2
 UBDSV3 SAVING "        RECHARGE" ON UNIT   9 AT TIME STEP 30, STRESS PERIOD   2
 SOLVING FOR ZETA FOR LAYER     1 ZONE     2
     2 CALLS TO PCG ROUTINE FOR TIME STEP  30 IN STRESS PERIOD    2
     4 TOTAL ITERATIONS

 MAXIMUM HEAD CHANGE FOR EACH ITERATION (1 INDICATES THE FIRST INNER ITERATION):

    HEAD CHANGE    HEAD CHANGE    HEAD CHANGE    HEAD CHANGE    HEAD CHANGE 
   LAYER,ROW,COL  LAYER,ROW,COL  LAYER,ROW,COL  LAYER,ROW,COL  LAYER,ROW,COL
 ---------------------------------------------------------------------------
  1   23.00      0  0.1207      0  0.8103E-03  1  0.1273E-04
   (  1, 20,  9)  (  1, 21,  8)  (  1, 12,  4)  (  1, 23,  4)

 MAXIMUM RESIDUAL FOR EACH ITERATION (1 INDICATES THE FIRST INNER ITERATION):

    RESIDUAL       RESIDUAL       RESIDUAL       RESIDUAL       RESIDUAL    
   LAYER,ROW,COL  LAYER,ROW,COL  LAYER,ROW,COL  LAYER,ROW,COL  LAYER,ROW,COL
 ---------------------------------------------------------------------------
  1 -0.3285E-04  0 -0.2433E-06  0 -0.4845E-08  1 -0.6228E-10
   (  1, 21,  8)  (  1, 12,  4)  (  1, 23,  4)  (  1, 22,  5)


 SOLVING FOR ZETA FOR LAYER     2 ZONE     2
     2 CALLS TO PCG ROUTINE FOR TIME STEP  30 IN STRESS PERIOD    2
     4 TOTAL ITERATIONS

 MAXIMUM HEAD CHANGE FOR EACH ITERATION (1 INDICATES THE FIRST INNER ITERATION):

    HEAD CHANGE    HEAD CHANGE    HEAD CHANGE    HEAD CHANGE    HEAD CHANGE 
   LAYER,ROW,COL  LAYER,ROW,COL  LAYER,ROW,COL  LAYER,ROW,COL  LAYER,ROW,COL
 ---------------------------------------------------------------------------
  1   6.887      0  0.5053E-01  0  0.7699E-03  1  0.1101E-04
   (  1, 14,  8)  (  1, 10,  5)  (  1, 14,  5)  (  1, 13,  6)

 MAXIMUM RESIDUAL FOR EACH ITERATION (1 INDICATES THE FIRST INNER ITERATION):

    RESIDUAL       RESIDUAL       RESIDUAL       RESIDUAL       RESIDUAL    
   LAYER,ROW,COL  LAYER,ROW,COL  LAYER,ROW,COL  LAYER,ROW,COL  LAYER,ROW,COL
 ---------------------------------------------------------------------------
  1 -0.1524E-04  0 -0.2652E-06  0 -0.4778E-08  1 -0.7130E-10
   (  1, 13,  6)  (  1, 14,  5)  (  1, 13,  6)  (  1, 14,  5)


 UBUDSV SAVING "      ZETASRF  1" ON UNIT170 AT TIME STEP 30, STRESS PERIOD    2


                      VOLUMETRIC SWI ZONE BUDGET FOR ENTIRE MODEL
                     AT END OF TIME STEP   30 IN STRESS PERIOD   2
                                      ZONE     1
  -----------------------------------------------------------------------------------

        CUMULATIVE VOLUMES      L**3       RATES FOR THIS TIME STEP      L**3/T
        ------------------                 ------------------------

              IN:                                      IN:
              ---                                      ---
             BOUNDARIES =   615910464.0000            BOUNDARIES =           0.2171
          CONSTANT HEAD =           0.0000         CONSTANT HEAD =           0.0000
            ZONE CHANGE =   145174592.0000           ZONE CHANGE =       9.3543E-02
       ZONE CHG TIP/TOE =     5984576.0000      ZONE CHG TIP/TOE =       1.0333E-02
            ZONE MIXING =           0.0000           ZONE MIXING =           0.0000

               TOTAL IN =   767069632.0000              TOTAL IN =           0.3210

             OUT:                                     OUT:
             ----                                     ----
             BOUNDARIES =   657655232.0000            BOUNDARIES =           0.3273
          CONSTANT HEAD =           0.0000         CONSTANT HEAD =           0.0000
            ZONE CHANGE =    25695358.0000           ZONE CHANGE =       1.0916E-02
       ZONE CHG TIP/TOE =     5260634.0000      ZONE CHG TIP/TOE =       8.1385E-03
            ZONE MIXING =      332180.3125           ZONE MIXING =           0.0000

              TOTAL OUT =   688943424.0000             TOTAL OUT =           0.3464

               IN - OUT =    78126208.0000              IN - OUT =      -2.5395E-02

    PERCENT DISCREPANCY =          10.73     PERCENT DISCREPANCY =          -7.61



                      VOLUMETRIC SWI ZONE BUDGET FOR ENTIRE MODEL
                     AT END OF TIME STEP   30 IN STRESS PERIOD   2
                                      ZONE     2
  -----------------------------------------------------------------------------------

        CUMULATIVE VOLUMES      L**3       RATES FOR THIS TIME STEP      L**3/T
        ------------------                 ------------------------

              IN:                                      IN:
              ---                                      ---
             BOUNDARIES =    26689756.0000            BOUNDARIES =       9.2761E-02
          CONSTANT HEAD =           0.0000         CONSTANT HEAD =           0.0000
            ZONE CHANGE =    22316316.0000           ZONE CHANGE =       8.8712E-03
       ZONE CHG TIP/TOE =     7760587.0000      ZONE CHG TIP/TOE =       2.0276E-02
            ZONE MIXING =      332180.3125           ZONE MIXING =           0.0000

               TOTAL IN =    57098840.0000              TOTAL IN =           0.1219

             OUT:                                     OUT:
             ----                                     ----
             BOUNDARIES =    33676924.0000            BOUNDARIES =       4.8478E-02
          CONSTANT HEAD =           0.0000         CONSTANT HEAD =           0.0000
            ZONE CHANGE =    26480544.0000           ZONE CHANGE =       5.1210E-02
       ZONE CHG TIP/TOE =     3431241.5000      ZONE CHG TIP/TOE =       7.7785E-03
            ZONE MIXING =           0.0000           ZONE MIXING =           0.0000

              TOTAL OUT =    63588712.0000             TOTAL OUT =           0.1075

               IN - OUT =    -6489872.0000              IN - OUT =       1.4441E-02

    PERCENT DISCREPANCY =         -10.75     PERCENT DISCREPANCY =          12.59


 HEAD WILL BE SAVED ON UNIT   37 AT END OF TIME STEP   30, STRESS PERIOD    2

 DRAWDOWN WILL BE SAVED ON UNIT   38 AT END OF TIME STEP   30, STRESS PERIOD    2
1
  VOLUMETRIC BUDGET FOR ENTIRE MODEL AT END OF TIME STEP   30, STRESS PERIOD   2
  ------------------------------------------------------------------------------

     CUMULATIVE VOLUMES      L**3       RATES FOR THIS TIME STEP      L**3/T
     ------------------                 ------------------------

           IN:                                      IN:
           ---                                      ---
             STORAGE =    48732956.0000               STORAGE =       6.5982E-02
       CONSTANT HEAD =           0.0000         CONSTANT HEAD =           0.0000
               WELLS =           0.0000                 WELLS =           0.0000
       RIVER LEAKAGE =   130103648.0000         RIVER LEAKAGE =       4.2000E-02
                  ET =           0.0000                    ET =           0.0000
     HEAD DEP BOUNDS =    34133196.0000       HEAD DEP BOUNDS =       9.8558E-02
            RECHARGE =   513490336.0000              RECHARGE =           0.1906
          SWIADDTOCH =           0.0000            SWIADDTOCH =           0.0000

            TOTAL IN =   726460160.0000              TOTAL IN =           0.3972

          OUT:                                     OUT:
          ----                                     ----
             STORAGE =       14074.1738               STORAGE =       4.7966E-05
       CONSTANT HEAD =           0.0000         CONSTANT HEAD =           0.0000
               WELLS =   184769424.0000                 WELLS =           0.3880
       RIVER LEAKAGE =    21630804.0000         RIVER LEAKAGE =           0.0000
                  ET =   166413648.0000                    ET =           0.0000
     HEAD DEP BOUNDS =   353645024.0000       HEAD DEP BOUNDS =       9.1310E-03
            RECHARGE =           0.0000              RECHARGE =           0.0000
          SWIADDTOCH =           0.0000            SWIADDTOCH =           0.0000

           TOTAL OUT =   726472960.0000             TOTAL OUT =           0.3972

            IN - OUT =      -12800.0000              IN - OUT =      -5.9605E-08

 PERCENT DISCREPANCY =          -0.00     PERCENT DISCREPANCY =          -0.00






         TIME SUMMARY AT END OF TIME STEP   30 IN STRESS PERIOD    2
                    SECONDS     MINUTES      HOURS       DAYS        YEARS
                    -----------------------------------------------------------
   TIME STEP LENGTH 1.57680E+07 2.62800E+05  4380.0      182.50     0.49966    
 STRESS PERIOD TIME 4.73040E+08 7.88400E+06 1.31400E+05  5475.0      14.990    
         TOTAL TIME 3.62664E+09 6.04440E+07 1.00740E+06  41975.      114.92    
1
 
 SOLVING FOR HEAD 

 CELL CONVERSIONS FOR ITER.=  2  LAYER=  1  STEP= 31  PERIOD=   2   (ROW,COL)
    DRY( 29, 37)   DRY( 42, 34)   DRY( 45, 28)   

 CELL CONVERSIONS FOR ITER.=  2  LAYER=  2  STEP= 31  PERIOD=   2   (ROW,COL)
    DRY( 58, 32)   

 CELL CONVERSIONS FOR ITER.=  6  LAYER=  1  STEP= 31  PERIOD=   2   (ROW,COL)
    DRY( 20, 39)   
     7 CALLS TO PCG ROUTINE FOR TIME STEP  31 IN STRESS PERIOD    2
    22 TOTAL ITERATIONS

 MAXIMUM HEAD CHANGE FOR EACH ITERATION (1 INDICATES THE FIRST INNER ITERATION):

    HEAD CHANGE    HEAD CHANGE    HEAD CHANGE    HEAD CHANGE    HEAD CHANGE 
   LAYER,ROW,COL  LAYER,ROW,COL  LAYER,ROW,COL  LAYER,ROW,COL  LAYER,ROW,COL
 ---------------------------------------------------------------------------
  1 -0.2419      0 -0.1193      0 -0.3064E-01  0  0.6725E-02  0 -0.2491E-02
   (  1, 16, 10)  (  2, 20, 10)  (  2, 20,  7)  (  2,  6, 11)  (  2,  6, 11)
  0 -0.6118E-03  1  0.4931      0 -0.1071      0 -0.1567E-01  0  0.2679E-02
   (  1, 21,  8)  (  2, 45, 28)  (  2, 45, 28)  (  2, 45, 28)  (  2, 29, 37)
  0 -0.8408E-03  1 -0.1123E-01  0 -0.4816E-03  1  0.4779E-02  0 -0.2886E-03
   (  2, 52, 27)  (  2, 54, 36)  (  2,  5, 11)  (  2, 54, 36)  (  2,  5, 11)
  1 -0.2050E-02  0 -0.6876E-04  1 -0.4939E-01  0 -0.8121E-02  0 -0.1365E-02
   (  2, 54, 36)  (  2,  5, 11)  (  2, 20, 39)  (  2, 17, 40)  (  2, 21, 38)
  0 -0.2554E-03  1 -0.2165E-03
   (  2, 23, 37)  (  2, 54, 36)

 MAXIMUM RESIDUAL FOR EACH ITERATION (1 INDICATES THE FIRST INNER ITERATION):

    RESIDUAL       RESIDUAL       RESIDUAL       RESIDUAL       RESIDUAL    
   LAYER,ROW,COL  LAYER,ROW,COL  LAYER,ROW,COL  LAYER,ROW,COL  LAYER,ROW,COL
 ---------------------------------------------------------------------------
  1  0.8131E-03  0  0.1913E-03  0  0.5679E-04  0  0.2083E-04  0  0.7007E-05
   (  2, 20, 10)  (  2, 20,  7)  (  2, 15,  8)  (  1, 21,  8)  (  1, 21,  8)
  0  0.2104E-05  1  0.3434E-01  0  0.3252E-02  0  0.5410E-03  0  0.1250E-03
   (  1, 20, 10)  (  1, 20, 39)  (  1, 20, 39)  (  1, 20, 39)  (  1, 20, 39)
  0  0.3073E-04  1  0.1222E-04  0  0.1896E-05  1  0.2788E-04  0  0.3301E-05
   (  1, 20, 39)  (  1, 20, 39)  (  1, 20, 39)  (  1, 20, 39)  (  1, 20, 39)
  1 -0.4831E-05  0 -0.9811E-06  1  0.2711E-04  0  0.8593E-05  0  0.1514E-05
   (  2, 20, 39)  (  2, 20, 39)  (  2, 19, 40)  (  2, 21, 38)  (  2, 19, 40)
  0  0.4546E-06  1  0.3352E-06
   (  2, 22, 37)  (  2, 19, 40)



 OUTPUT CONTROL FOR STRESS PERIOD    2   TIME STEP   31
    SAVE HEAD FOR ALL LAYERS
    SAVE DRAWDOWN FOR ALL LAYERS
    SAVE BUDGET
    PRINT BUDGET
 UBDSV1 SAVING "         STORAGE" ON UNIT   9 AT TIME STEP 31, STRESS PERIOD   2
 UBDSV2 SAVING "   CONSTANT HEAD" ON UNIT   9 AT TIME STEP 31, STRESS PERIOD   2
 UBDSV1 SAVING "FLOW RIGHT FACE " ON UNIT   9 AT TIME STEP 31, STRESS PERIOD   2
 UBDSV1 SAVING "FLOW FRONT FACE " ON UNIT   9 AT TIME STEP 31, STRESS PERIOD   2
 UBDSV1 SAVING "FLOW LOWER FACE " ON UNIT   9 AT TIME STEP 31, STRESS PERIOD   2
 UBDSV4 SAVING "           WELLS" ON UNIT   9 AT TIME STEP 31, STRESS PERIOD   2
 UBDSV4 SAVING "   RIVER LEAKAGE" ON UNIT   9 AT TIME STEP 31, STRESS PERIOD   2
 UBDSV3 SAVING "              ET" ON UNIT   9 AT TIME STEP 31, STRESS PERIOD   2
 UBDSV4 SAVING " HEAD DEP BOUNDS" ON UNIT   9 AT TIME STEP 31, STRESS PERIOD   2
 UBDSV3 SAVING "        RECHARGE" ON UNIT   9 AT TIME STEP 31, STRESS PERIOD   2
 SOLVING FOR ZETA FOR LAYER     1 ZONE     2
     2 CALLS TO PCG ROUTINE FOR TIME STEP  31 IN STRESS PERIOD    2
     4 TOTAL ITERATIONS

 MAXIMUM HEAD CHANGE FOR EACH ITERATION (1 INDICATES THE FIRST INNER ITERATION):

    HEAD CHANGE    HEAD CHANGE    HEAD CHANGE    HEAD CHANGE    HEAD CHANGE 
   LAYER,ROW,COL  LAYER,ROW,COL  LAYER,ROW,COL  LAYER,ROW,COL  LAYER,ROW,COL
 ---------------------------------------------------------------------------
  1   10.96      0  0.6129E-01  0  0.7003E-03  1  0.1174E-04
   (  1, 19,  8)  (  1, 20,  7)  (  1, 24,  3)  (  1, 23,  4)

 MAXIMUM RESIDUAL FOR EACH ITERATION (1 INDICATES THE FIRST INNER ITERATION):

    RESIDUAL       RESIDUAL       RESIDUAL       RESIDUAL       RESIDUAL    
   LAYER,ROW,COL  LAYER,ROW,COL  LAYER,ROW,COL  LAYER,ROW,COL  LAYER,ROW,COL
 ---------------------------------------------------------------------------
  1 -0.1747E-04  0 -0.2214E-06  0 -0.4619E-08  1 -0.5419E-10
   (  1, 23,  4)  (  1, 24,  3)  (  1, 23,  4)  (  1, 22,  5)


 SOLVING FOR ZETA FOR LAYER     2 ZONE     2
     2 CALLS TO PCG ROUTINE FOR TIME STEP  31 IN STRESS PERIOD    2
     5 TOTAL ITERATIONS

 MAXIMUM HEAD CHANGE FOR EACH ITERATION (1 INDICATES THE FIRST INNER ITERATION):

    HEAD CHANGE    HEAD CHANGE    HEAD CHANGE    HEAD CHANGE    HEAD CHANGE 
   LAYER,ROW,COL  LAYER,ROW,COL  LAYER,ROW,COL  LAYER,ROW,COL  LAYER,ROW,COL
 ---------------------------------------------------------------------------
  1   7.540      0  0.7133E-01  0  0.1216E-02  0  0.1462E-04  1 -0.3383E-06
   (  1, 14,  8)  (  1, 22,  7)  (  1, 23,  6)  (  1, 22,  7)  (  1,  7,  6)

 MAXIMUM RESIDUAL FOR EACH ITERATION (1 INDICATES THE FIRST INNER ITERATION):

    RESIDUAL       RESIDUAL       RESIDUAL       RESIDUAL       RESIDUAL    
   LAYER,ROW,COL  LAYER,ROW,COL  LAYER,ROW,COL  LAYER,ROW,COL  LAYER,ROW,COL
 ---------------------------------------------------------------------------
  1 -0.2632E-04  0 -0.4109E-06  0 -0.5839E-08  0 -0.6430E-10  1 -0.2399E-11
   (  1, 22,  7)  (  1, 23,  6)  (  1, 22,  7)  (  1, 25,  5)  (  1, 22,  7)


 UBUDSV SAVING "      ZETASRF  1" ON UNIT170 AT TIME STEP 31, STRESS PERIOD    2


                      VOLUMETRIC SWI ZONE BUDGET FOR ENTIRE MODEL
                     AT END OF TIME STEP   31 IN STRESS PERIOD   2
                                      ZONE     1
  -----------------------------------------------------------------------------------

        CUMULATIVE VOLUMES      L**3       RATES FOR THIS TIME STEP      L**3/T
        ------------------                 ------------------------

              IN:                                      IN:
              ---                                      ---
             BOUNDARIES =   619327680.0000            BOUNDARIES =           0.2167
          CONSTANT HEAD =           0.0000         CONSTANT HEAD =           0.0000
            ZONE CHANGE =   146641824.0000           ZONE CHANGE =       9.3051E-02
       ZONE CHG TIP/TOE =     6127346.5000      ZONE CHG TIP/TOE =       9.0544E-03
            ZONE MIXING =           0.0000           ZONE MIXING =           0.0000

               TOTAL IN =   772096832.0000              TOTAL IN =           0.3188

             OUT:                                     OUT:
             ----                                     ----
             BOUNDARIES =   662397760.0000            BOUNDARIES =           0.3008
          CONSTANT HEAD =           0.0000         CONSTANT HEAD =           0.0000
            ZONE CHANGE =    25797304.0000           ZONE CHANGE =       6.4654E-03
       ZONE CHG TIP/TOE =     5389942.5000      ZONE CHG TIP/TOE =       8.2007E-03
            ZONE MIXING =      401655.2812           ZONE MIXING =       4.4061E-03

              TOTAL OUT =   693986688.0000             TOTAL OUT =           0.3198

               IN - OUT =    78110144.0000              IN - OUT =      -1.0185E-03

    PERCENT DISCREPANCY =          10.66     PERCENT DISCREPANCY =          -0.32



                      VOLUMETRIC SWI ZONE BUDGET FOR ENTIRE MODEL
                     AT END OF TIME STEP   31 IN STRESS PERIOD   2
                                      ZONE     2
  -----------------------------------------------------------------------------------

        CUMULATIVE VOLUMES      L**3       RATES FOR THIS TIME STEP      L**3/T
        ------------------                 ------------------------

              IN:                                      IN:
              ---                                      ---
             BOUNDARIES =    28168220.0000            BOUNDARIES =       9.3764E-02
          CONSTANT HEAD =           0.0000         CONSTANT HEAD =           0.0000
            ZONE CHANGE =    22403802.0000           ZONE CHANGE =       5.5484E-03
       ZONE CHG TIP/TOE =     7948362.5000      ZONE CHG TIP/TOE =       1.1909E-02
            ZONE MIXING =      401655.2812           ZONE MIXING =       4.4061E-03

               TOTAL IN =    58922040.0000              TOTAL IN =           0.1156

             OUT:                                     OUT:
             ----                                     ----
             BOUNDARIES =    34826524.0000            BOUNDARIES =       7.2907E-02
          CONSTANT HEAD =           0.0000         CONSTANT HEAD =           0.0000
            ZONE CHANGE =    27176490.0000           ZONE CHANGE =       4.4137E-02
       ZONE CHG TIP/TOE =     3558384.7500      ZONE CHG TIP/TOE =       8.0634E-03
            ZONE MIXING =           0.0000           ZONE MIXING =           0.0000

              TOTAL OUT =    65561400.0000             TOTAL OUT =           0.1251

               IN - OUT =    -6639360.0000              IN - OUT =      -9.4805E-03

    PERCENT DISCREPANCY =         -10.67     PERCENT DISCREPANCY =          -7.88


 HEAD WILL BE SAVED ON UNIT   37 AT END OF TIME STEP   31, STRESS PERIOD    2

 DRAWDOWN WILL BE SAVED ON UNIT   38 AT END OF TIME STEP   31, STRESS PERIOD    2
1
  VOLUMETRIC BUDGET FOR ENTIRE MODEL AT END OF TIME STEP   31, STRESS PERIOD   2
  ------------------------------------------------------------------------------

     CUMULATIVE VOLUMES      L**3       RATES FOR THIS TIME STEP      L**3/T
     ------------------                 ------------------------

           IN:                                      IN:
           ---                                      ---
             STORAGE =    49732296.0000               STORAGE =       6.3378E-02
       CONSTANT HEAD =           0.0000         CONSTANT HEAD =           0.0000
               WELLS =           0.0000                 WELLS =           0.0000
       RIVER LEAKAGE =   130765904.0000         RIVER LEAKAGE =       4.2000E-02
                  ET =           0.0000                    ET =           0.0000
     HEAD DEP BOUNDS =    35705612.0000       HEAD DEP BOUNDS =       9.9722E-02
            RECHARGE =   516484352.0000              RECHARGE =           0.1899
          SWIADDTOCH =           0.0000            SWIADDTOCH =           0.0000

            TOTAL IN =   732688192.0000              TOTAL IN =           0.3950

          OUT:                                     OUT:
          ----                                     ----
             STORAGE =       16961.5352               STORAGE =       1.8312E-04
       CONSTANT HEAD =           0.0000         CONSTANT HEAD =           0.0000
               WELLS =   190855872.0000                 WELLS =           0.3860
       RIVER LEAKAGE =    21630804.0000         RIVER LEAKAGE =           0.0000
                  ET =   166413648.0000                    ET =           0.0000
     HEAD DEP BOUNDS =   353783712.0000       HEAD DEP BOUNDS =       8.7957E-03
            RECHARGE =           0.0000              RECHARGE =           0.0000
          SWIADDTOCH =           0.0000            SWIADDTOCH =           0.0000

           TOTAL OUT =   732700992.0000             TOTAL OUT =           0.3950

            IN - OUT =      -12800.0000              IN - OUT =      -6.2585E-07

 PERCENT DISCREPANCY =          -0.00     PERCENT DISCREPANCY =          -0.00






         TIME SUMMARY AT END OF TIME STEP   31 IN STRESS PERIOD    2
                    SECONDS     MINUTES      HOURS       DAYS        YEARS
                    -----------------------------------------------------------
   TIME STEP LENGTH 1.57680E+07 2.62800E+05  4380.0      182.50     0.49966    
 STRESS PERIOD TIME 4.88808E+08 8.14680E+06 1.35780E+05  5657.5      15.489    
         TOTAL TIME 3.64241E+09 6.07068E+07 1.01178E+06  42158.      115.42    
1
 
 SOLVING FOR HEAD 

 CELL CONVERSIONS FOR ITER.=  2  LAYER=  1  STEP= 32  PERIOD=   2   (ROW,COL)
    DRY( 21, 40)   DRY( 38, 35)   

 CELL CONVERSIONS FOR ITER.=  3  LAYER=  1  STEP= 32  PERIOD=   2   (ROW,COL)
    DRY( 22, 41)   

 CELL CONVERSIONS FOR ITER.=  6  LAYER=  1  STEP= 32  PERIOD=   2   (ROW,COL)
    DRY( 44, 31)   
     7 CALLS TO PCG ROUTINE FOR TIME STEP  32 IN STRESS PERIOD    2
    24 TOTAL ITERATIONS

 MAXIMUM HEAD CHANGE FOR EACH ITERATION (1 INDICATES THE FIRST INNER ITERATION):

    HEAD CHANGE    HEAD CHANGE    HEAD CHANGE    HEAD CHANGE    HEAD CHANGE 
   LAYER,ROW,COL  LAYER,ROW,COL  LAYER,ROW,COL  LAYER,ROW,COL  LAYER,ROW,COL
 ---------------------------------------------------------------------------
  1 -0.2871      0  0.8023E-01  0  0.1748E-01  0 -0.4570E-02  0 -0.1715E-02
   (  1, 15,  6)  (  2, 14,  8)  (  1, 15,  6)  (  2, 19,  7)  (  2, 34,  9)
  0 -0.6168E-03  1 -0.7862E-01  0  0.1460E-01  0  0.2356E-02  0  0.4737E-03
   (  1, 35,  8)  (  1, 44, 31)  (  2, 38, 35)  (  2, 38, 35)  (  2, 21, 40)
  1 -0.7905E-01  0  0.1489E-01  0 -0.1481E-02  0  0.3027E-03  1  0.6264E-02
   (  2, 22, 41)  (  2, 23, 41)  (  2, 19, 45)  (  2, 18, 41)  (  2, 54, 36)
  0  0.1222E-03  1 -0.3161E-02  0 -0.4789E-04  1 -0.2327      0 -0.2565E-01
   (  2,  6, 11)  (  2, 54, 36)  (  2, 53, 36)  (  2, 44, 31)  (  2, 45, 29)
  0 -0.6001E-02  0 -0.1111E-02  0 -0.2927E-03  1 -0.8720E-03
   (  2, 43, 32)  (  2, 52, 27)  (  2, 38, 37)  (  1, 42, 31)

 MAXIMUM RESIDUAL FOR EACH ITERATION (1 INDICATES THE FIRST INNER ITERATION):

    RESIDUAL       RESIDUAL       RESIDUAL       RESIDUAL       RESIDUAL    
   LAYER,ROW,COL  LAYER,ROW,COL  LAYER,ROW,COL  LAYER,ROW,COL  LAYER,ROW,COL
 ---------------------------------------------------------------------------
  1 -0.5898E-03  0 -0.2048E-03  0 -0.5578E-04  0  0.1333E-04  0  0.3636E-05
   (  2, 14,  8)  (  1, 15,  6)  (  1, 15,  6)  (  2, 15,  6)  (  1, 16,  7)
  0  0.1240E-05  1 -0.1627E-03  0  0.1708E-04  0 -0.4016E-05  0  0.9144E-06
   (  1, 20,  9)  (  2, 22, 41)  (  1, 22, 41)  (  2, 21, 40)  (  1, 22, 41)
  1  0.6611E-03  0  0.5222E-04  0  0.1010E-04  0  0.2702E-05  1  0.3629E-05
   (  1, 44, 31)  (  1, 44, 31)  (  1, 44, 31)  (  1, 44, 31)  (  1, 44, 31)
  0  0.8115E-06  1 -0.2629E-05  0 -0.8511E-06  1  0.1312E-03  0  0.4344E-04
   (  1, 44, 31)  (  2, 44, 31)  (  2, 44, 31)  (  2, 44, 31)  (  2, 43, 32)
  0  0.5139E-05  0  0.2072E-05  0  0.5739E-06  1  0.1424E-05
   (  2, 43, 32)  (  2, 46, 29)  (  2, 42, 33)  (  1, 42, 31)



 OUTPUT CONTROL FOR STRESS PERIOD    2   TIME STEP   32
    SAVE HEAD FOR ALL LAYERS
    SAVE DRAWDOWN FOR ALL LAYERS
    SAVE BUDGET
    PRINT BUDGET
 UBDSV1 SAVING "         STORAGE" ON UNIT   9 AT TIME STEP 32, STRESS PERIOD   2
 UBDSV2 SAVING "   CONSTANT HEAD" ON UNIT   9 AT TIME STEP 32, STRESS PERIOD   2
 UBDSV1 SAVING "FLOW RIGHT FACE " ON UNIT   9 AT TIME STEP 32, STRESS PERIOD   2
 UBDSV1 SAVING "FLOW FRONT FACE " ON UNIT   9 AT TIME STEP 32, STRESS PERIOD   2
 UBDSV1 SAVING "FLOW LOWER FACE " ON UNIT   9 AT TIME STEP 32, STRESS PERIOD   2
 UBDSV4 SAVING "           WELLS" ON UNIT   9 AT TIME STEP 32, STRESS PERIOD   2
 UBDSV4 SAVING "   RIVER LEAKAGE" ON UNIT   9 AT TIME STEP 32, STRESS PERIOD   2
 UBDSV3 SAVING "              ET" ON UNIT   9 AT TIME STEP 32, STRESS PERIOD   2
 UBDSV4 SAVING " HEAD DEP BOUNDS" ON UNIT   9 AT TIME STEP 32, STRESS PERIOD   2
 UBDSV3 SAVING "        RECHARGE" ON UNIT   9 AT TIME STEP 32, STRESS PERIOD   2
 SOLVING FOR ZETA FOR LAYER     1 ZONE     2
     2 CALLS TO PCG ROUTINE FOR TIME STEP  32 IN STRESS PERIOD    2
     4 TOTAL ITERATIONS

 MAXIMUM HEAD CHANGE FOR EACH ITERATION (1 INDICATES THE FIRST INNER ITERATION):

    HEAD CHANGE    HEAD CHANGE    HEAD CHANGE    HEAD CHANGE    HEAD CHANGE 
   LAYER,ROW,COL  LAYER,ROW,COL  LAYER,ROW,COL  LAYER,ROW,COL  LAYER,ROW,COL
 ---------------------------------------------------------------------------
  1   27.25      0  0.1664      0  0.7891E-03  1  0.1857E-04
   (  1, 18, 10)  (  1, 19, 10)  (  1, 22,  5)  (  1, 23,  4)

 MAXIMUM RESIDUAL FOR EACH ITERATION (1 INDICATES THE FIRST INNER ITERATION):

    RESIDUAL       RESIDUAL       RESIDUAL       RESIDUAL       RESIDUAL    
   LAYER,ROW,COL  LAYER,ROW,COL  LAYER,ROW,COL  LAYER,ROW,COL  LAYER,ROW,COL
 ---------------------------------------------------------------------------
  1 -0.4543E-04  0 -0.2483E-06  0 -0.7142E-08  1 -0.9345E-10
   (  1, 19, 10)  (  1, 24,  3)  (  1, 23,  4)  (  1, 22,  5)


 SOLVING FOR ZETA FOR LAYER     2 ZONE     2
     2 CALLS TO PCG ROUTINE FOR TIME STEP  32 IN STRESS PERIOD    2
     5 TOTAL ITERATIONS

 MAXIMUM HEAD CHANGE FOR EACH ITERATION (1 INDICATES THE FIRST INNER ITERATION):

    HEAD CHANGE    HEAD CHANGE    HEAD CHANGE    HEAD CHANGE    HEAD CHANGE 
   LAYER,ROW,COL  LAYER,ROW,COL  LAYER,ROW,COL  LAYER,ROW,COL  LAYER,ROW,COL
 ---------------------------------------------------------------------------
  1   7.473      0  0.6221E-01  0  0.1232E-02  0  0.1838E-04  1  0.1906E-06
   (  1, 15,  9)  (  1, 12,  6)  (  1, 14,  5)  (  1, 13,  6)  (  1, 14,  5)

 MAXIMUM RESIDUAL FOR EACH ITERATION (1 INDICATES THE FIRST INNER ITERATION):

    RESIDUAL       RESIDUAL       RESIDUAL       RESIDUAL       RESIDUAL    
   LAYER,ROW,COL  LAYER,ROW,COL  LAYER,ROW,COL  LAYER,ROW,COL  LAYER,ROW,COL
 ---------------------------------------------------------------------------
  1 -0.2320E-04  0 -0.3654E-06  0 -0.7197E-08  0 -0.7185E-10  1 -0.2060E-11
   (  1, 12,  6)  (  1, 13,  5)  (  1, 13,  6)  (  1, 23,  7)  (  1, 13,  6)


 UBUDSV SAVING "      ZETASRF  1" ON UNIT170 AT TIME STEP 32, STRESS PERIOD    2


                      VOLUMETRIC SWI ZONE BUDGET FOR ENTIRE MODEL
                     AT END OF TIME STEP   32 IN STRESS PERIOD   2
                                      ZONE     1
  -----------------------------------------------------------------------------------

        CUMULATIVE VOLUMES      L**3       RATES FOR THIS TIME STEP      L**3/T
        ------------------                 ------------------------

              IN:                                      IN:
              ---                                      ---
             BOUNDARIES =   622719936.0000            BOUNDARIES =           0.2151
          CONSTANT HEAD =           0.0000         CONSTANT HEAD =           0.0000
            ZONE CHANGE =   148208432.0000           ZONE CHANGE =       9.9354E-02
       ZONE CHG TIP/TOE =     6170333.0000      ZONE CHG TIP/TOE =       2.7262E-03
            ZONE MIXING =           0.0000           ZONE MIXING =           0.0000

               TOTAL IN =   777098688.0000              TOTAL IN =           0.3172

             OUT:                                     OUT:
             ----                                     ----
             BOUNDARIES =   668058176.0000            BOUNDARIES =           0.3590
          CONSTANT HEAD =           0.0000         CONSTANT HEAD =           0.0000
            ZONE CHANGE =    25883514.0000           ZONE CHANGE =       5.4673E-03
       ZONE CHG TIP/TOE =     5405313.0000      ZONE CHG TIP/TOE =       9.7478E-04
            ZONE MIXING =      401655.2812           ZONE MIXING =           0.0000

              TOTAL OUT =   699748672.0000             TOTAL OUT =           0.3654

               IN - OUT =    77350016.0000              IN - OUT =      -4.8209E-02

    PERCENT DISCREPANCY =          10.48     PERCENT DISCREPANCY =         -14.12



                      VOLUMETRIC SWI ZONE BUDGET FOR ENTIRE MODEL
                     AT END OF TIME STEP   32 IN STRESS PERIOD   2
                                      ZONE     2
  -----------------------------------------------------------------------------------

        CUMULATIVE VOLUMES      L**3       RATES FOR THIS TIME STEP      L**3/T
        ------------------                 ------------------------

              IN:                                      IN:
              ---                                      ---
             BOUNDARIES =    29658742.0000            BOUNDARIES =       9.4528E-02
          CONSTANT HEAD =           0.0000         CONSTANT HEAD =           0.0000
            ZONE CHANGE =    22479548.0000           ZONE CHANGE =       4.8038E-03
       ZONE CHG TIP/TOE =     8566457.0000      ZONE CHG TIP/TOE =       3.9199E-02
            ZONE MIXING =      401655.2812           ZONE MIXING =           0.0000

               TOTAL IN =    61106400.0000              TOTAL IN =           0.1385

             OUT:                                     OUT:
             ----                                     ----
             BOUNDARIES =    35054044.0000            BOUNDARIES =       1.4429E-02
          CONSTANT HEAD =           0.0000         CONSTANT HEAD =           0.0000
            ZONE CHANGE =    28510392.0000           ZONE CHANGE =       8.4595E-02
       ZONE CHG TIP/TOE =     3588174.7500      ZONE CHG TIP/TOE =       1.8893E-03
            ZONE MIXING =           0.0000           ZONE MIXING =           0.0000

              TOTAL OUT =    67152608.0000             TOTAL OUT =           0.1009

               IN - OUT =    -6046208.0000              IN - OUT =       3.7617E-02

    PERCENT DISCREPANCY =          -9.43     PERCENT DISCREPANCY =          31.42


 HEAD WILL BE SAVED ON UNIT   37 AT END OF TIME STEP   32, STRESS PERIOD    2

 DRAWDOWN WILL BE SAVED ON UNIT   38 AT END OF TIME STEP   32, STRESS PERIOD    2
1
  VOLUMETRIC BUDGET FOR ENTIRE MODEL AT END OF TIME STEP   32, STRESS PERIOD   2
  ------------------------------------------------------------------------------

     CUMULATIVE VOLUMES      L**3       RATES FOR THIS TIME STEP      L**3/T
     ------------------                 ------------------------

           IN:                                      IN:
           ---                                      ---
             STORAGE =    50738116.0000               STORAGE =       6.3789E-02
       CONSTANT HEAD =           0.0000         CONSTANT HEAD =           0.0000
               WELLS =           0.0000                 WELLS =           0.0000
       RIVER LEAKAGE =   131412392.0000         RIVER LEAKAGE =       4.1000E-02
                  ET =           0.0000                    ET =           0.0000
     HEAD DEP BOUNDS =    37292908.0000       HEAD DEP BOUNDS =           0.1007
            RECHARGE =   519466368.0000              RECHARGE =           0.1891
          SWIADDTOCH =           0.0000            SWIADDTOCH =           0.0000

            TOTAL IN =   738909824.0000              TOTAL IN =           0.3946

          OUT:                                     OUT:
          ----                                     ----
             STORAGE =       17617.5000               STORAGE =       4.1601E-05
       CONSTANT HEAD =           0.0000         CONSTANT HEAD =           0.0000
               WELLS =   196942320.0000                 WELLS =           0.3860
       RIVER LEAKAGE =    21630804.0000         RIVER LEAKAGE =           0.0000
                  ET =   166413648.0000                    ET =           0.0000
     HEAD DEP BOUNDS =   353918208.0000       HEAD DEP BOUNDS =       8.5304E-03
            RECHARGE =           0.0000              RECHARGE =           0.0000
          SWIADDTOCH =           0.0000            SWIADDTOCH =           0.0000

           TOTAL OUT =   738922624.0000             TOTAL OUT =           0.3946

            IN - OUT =      -12800.0000              IN - OUT =      -6.5565E-07

 PERCENT DISCREPANCY =          -0.00     PERCENT DISCREPANCY =          -0.00






         TIME SUMMARY AT END OF TIME STEP   32 IN STRESS PERIOD    2
                    SECONDS     MINUTES      HOURS       DAYS        YEARS
                    -----------------------------------------------------------
   TIME STEP LENGTH 1.57680E+07 2.62800E+05  4380.0      182.50     0.49966    
 STRESS PERIOD TIME 5.04576E+08 8.40960E+06 1.40160E+05  5840.0      15.989    
         TOTAL TIME 3.65818E+09 6.09696E+07 1.01616E+06  42340.      115.92    
1
 
 SOLVING FOR HEAD 

 CELL CONVERSIONS FOR ITER.=  2  LAYER=  1  STEP= 33  PERIOD=   2   (ROW,COL)
    DRY( 19, 40)   DRY( 48, 23)   
     8 CALLS TO PCG ROUTINE FOR TIME STEP  33 IN STRESS PERIOD    2
    21 TOTAL ITERATIONS

 MAXIMUM HEAD CHANGE FOR EACH ITERATION (1 INDICATES THE FIRST INNER ITERATION):

    HEAD CHANGE    HEAD CHANGE    HEAD CHANGE    HEAD CHANGE    HEAD CHANGE 
   LAYER,ROW,COL  LAYER,ROW,COL  LAYER,ROW,COL  LAYER,ROW,COL  LAYER,ROW,COL
 ---------------------------------------------------------------------------
  1 -0.2421      0 -0.8894E-01  0 -0.2094E-01  0 -0.5223E-02  0 -0.1526E-02
   (  2, 19, 10)  (  2, 20,  9)  (  2, 15,  8)  (  2, 18,  8)  (  2, 34,  9)
  0 -0.6633E-03  1 -0.4266E-01  0 -0.6397E-02  0 -0.1659E-02  0  0.4180E-03
   (  1, 35,  8)  (  2, 48, 23)  (  2, 18, 42)  (  2, 18, 41)  (  2, 54, 38)
  1 -0.1193E-01  0 -0.6949E-03  1  0.6643E-02  0  0.2884E-03  1 -0.3718E-02
   (  2, 54, 36)  (  2, 54, 36)  (  2, 54, 36)  (  2, 54, 36)  (  2, 54, 36)
  0 -0.1141E-03  1  0.2035E-02  0  0.7516E-04  1 -0.1121E-02  0 -0.4039E-04
   (  2, 54, 36)  (  2, 54, 36)  (  2, 54, 36)  (  2, 54, 36)  (  2, 54, 36)
  1  0.6115E-03
   (  2, 54, 36)

 MAXIMUM RESIDUAL FOR EACH ITERATION (1 INDICATES THE FIRST INNER ITERATION):

    RESIDUAL       RESIDUAL       RESIDUAL       RESIDUAL       RESIDUAL    
   LAYER,ROW,COL  LAYER,ROW,COL  LAYER,ROW,COL  LAYER,ROW,COL  LAYER,ROW,COL
 ---------------------------------------------------------------------------
  1 -0.7423E-03  0  0.1363E-03  0  0.4369E-04  0  0.1402E-04  0 -0.4459E-05
   (  2, 19, 10)  (  2, 19, 11)  (  1, 21,  8)  (  1, 21,  8)  (  2, 21,  8)
  0  0.1464E-05  1  0.3225E-04  0  0.9214E-05  0  0.2404E-05  0  0.7038E-06
   (  2, 20,  9)  (  2, 48, 23)  (  2, 20, 39)  (  2, 47, 24)  (  2, 47, 24)
  1 -0.7131E-06  0 -0.2095E-06  1 -0.4640E-06  0  0.1800E-06  1 -0.1962E-06
   (  2, 34,  9)  (  2, 20,  9)  (  2, 34,  9)  (  2, 52, 37)  (  2, 52, 37)
  0 -0.1086E-06  1  0.1104E-06  0  0.6600E-07  1 -0.6332E-07  0 -0.3581E-07
   (  2, 52, 37)  (  2, 52, 37)  (  2, 52, 37)  (  2, 52, 37)  (  2, 52, 37)
  1  0.3433E-07
   (  2, 52, 37)



 OUTPUT CONTROL FOR STRESS PERIOD    2   TIME STEP   33
    SAVE HEAD FOR ALL LAYERS
    SAVE DRAWDOWN FOR ALL LAYERS
    SAVE BUDGET
    PRINT BUDGET
 UBDSV1 SAVING "         STORAGE" ON UNIT   9 AT TIME STEP 33, STRESS PERIOD   2
 UBDSV2 SAVING "   CONSTANT HEAD" ON UNIT   9 AT TIME STEP 33, STRESS PERIOD   2
 UBDSV1 SAVING "FLOW RIGHT FACE " ON UNIT   9 AT TIME STEP 33, STRESS PERIOD   2
 UBDSV1 SAVING "FLOW FRONT FACE " ON UNIT   9 AT TIME STEP 33, STRESS PERIOD   2
 UBDSV1 SAVING "FLOW LOWER FACE " ON UNIT   9 AT TIME STEP 33, STRESS PERIOD   2
 UBDSV4 SAVING "           WELLS" ON UNIT   9 AT TIME STEP 33, STRESS PERIOD   2
 UBDSV4 SAVING "   RIVER LEAKAGE" ON UNIT   9 AT TIME STEP 33, STRESS PERIOD   2
 UBDSV3 SAVING "              ET" ON UNIT   9 AT TIME STEP 33, STRESS PERIOD   2
 UBDSV4 SAVING " HEAD DEP BOUNDS" ON UNIT   9 AT TIME STEP 33, STRESS PERIOD   2
 UBDSV3 SAVING "        RECHARGE" ON UNIT   9 AT TIME STEP 33, STRESS PERIOD   2
 SOLVING FOR ZETA FOR LAYER     1 ZONE     2
     2 CALLS TO PCG ROUTINE FOR TIME STEP  33 IN STRESS PERIOD    2
     4 TOTAL ITERATIONS

 MAXIMUM HEAD CHANGE FOR EACH ITERATION (1 INDICATES THE FIRST INNER ITERATION):

    HEAD CHANGE    HEAD CHANGE    HEAD CHANGE    HEAD CHANGE    HEAD CHANGE 
   LAYER,ROW,COL  LAYER,ROW,COL  LAYER,ROW,COL  LAYER,ROW,COL  LAYER,ROW,COL
 ---------------------------------------------------------------------------
  1   7.944      0  0.5883E-01  0  0.8693E-03  1  0.7331E-05
   (  1, 19, 10)  (  1, 23,  4)  (  1, 24,  3)  (  1, 23,  4)

 MAXIMUM RESIDUAL FOR EACH ITERATION (1 INDICATES THE FIRST INNER ITERATION):

    RESIDUAL       RESIDUAL       RESIDUAL       RESIDUAL       RESIDUAL    
   LAYER,ROW,COL  LAYER,ROW,COL  LAYER,ROW,COL  LAYER,ROW,COL  LAYER,ROW,COL
 ---------------------------------------------------------------------------
  1 -0.2210E-04  0 -0.2764E-06  0 -0.2959E-08  1 -0.3828E-10
   (  1, 23,  4)  (  1, 24,  3)  (  1, 23,  4)  (  1, 22,  5)


 SOLVING FOR ZETA FOR LAYER     2 ZONE     2
     2 CALLS TO PCG ROUTINE FOR TIME STEP  33 IN STRESS PERIOD    2
     5 TOTAL ITERATIONS

 MAXIMUM HEAD CHANGE FOR EACH ITERATION (1 INDICATES THE FIRST INNER ITERATION):

    HEAD CHANGE    HEAD CHANGE    HEAD CHANGE    HEAD CHANGE    HEAD CHANGE 
   LAYER,ROW,COL  LAYER,ROW,COL  LAYER,ROW,COL  LAYER,ROW,COL  LAYER,ROW,COL
 ---------------------------------------------------------------------------
  1   8.150      0  0.7044E-01  0  0.1523E-02  0  0.2521E-04  1  0.4183E-06
   (  1, 14,  9)  (  1, 22,  8)  (  1, 23,  7)  (  1, 24,  6)  (  1, 15,  9)

 MAXIMUM RESIDUAL FOR EACH ITERATION (1 INDICATES THE FIRST INNER ITERATION):

    RESIDUAL       RESIDUAL       RESIDUAL       RESIDUAL       RESIDUAL    
   LAYER,ROW,COL  LAYER,ROW,COL  LAYER,ROW,COL  LAYER,ROW,COL  LAYER,ROW,COL
 ---------------------------------------------------------------------------
  1 -0.2409E-04  0 -0.5379E-06  0 -0.1034E-07  0 -0.1370E-09  1 -0.4048E-11
   (  1, 12,  6)  (  1, 23,  7)  (  1, 24,  6)  (  1, 25,  5)  (  1, 24,  6)


 UBUDSV SAVING "      ZETASRF  1" ON UNIT170 AT TIME STEP 33, STRESS PERIOD    2


                      VOLUMETRIC SWI ZONE BUDGET FOR ENTIRE MODEL
                     AT END OF TIME STEP   33 IN STRESS PERIOD   2
                                      ZONE     1
  -----------------------------------------------------------------------------------

        CUMULATIVE VOLUMES      L**3       RATES FOR THIS TIME STEP      L**3/T
        ------------------                 ------------------------

              IN:                                      IN:
              ---                                      ---
             BOUNDARIES =   626108672.0000            BOUNDARIES =           0.2149
          CONSTANT HEAD =           0.0000         CONSTANT HEAD =           0.0000
            ZONE CHANGE =   149605920.0000           ZONE CHANGE =       8.8628E-02
       ZONE CHG TIP/TOE =     6281639.5000      ZONE CHG TIP/TOE =       7.0590E-03
            ZONE MIXING =           0.0000           ZONE MIXING =           0.0000

               TOTAL IN =   781996224.0000              TOTAL IN =           0.3106

             OUT:                                     OUT:
             ----                                     ----
             BOUNDARIES =   672715840.0000            BOUNDARIES =           0.2954
          CONSTANT HEAD =           0.0000         CONSTANT HEAD =           0.0000
            ZONE CHANGE =    26010894.0000           ZONE CHANGE =       8.0784E-03
       ZONE CHG TIP/TOE =     5478706.5000      ZONE CHG TIP/TOE =       4.6546E-03
            ZONE MIXING =      471819.4062           ZONE MIXING =       4.4498E-03

              TOTAL OUT =   704677248.0000             TOTAL OUT =           0.3126

               IN - OUT =    77318976.0000              IN - OUT =      -1.9704E-03

    PERCENT DISCREPANCY =          10.40     PERCENT DISCREPANCY =          -0.63



                      VOLUMETRIC SWI ZONE BUDGET FOR ENTIRE MODEL
                     AT END OF TIME STEP   33 IN STRESS PERIOD   2
                                      ZONE     2
  -----------------------------------------------------------------------------------

        CUMULATIVE VOLUMES      L**3       RATES FOR THIS TIME STEP      L**3/T
        ------------------                 ------------------------

              IN:                                      IN:
              ---                                      ---
             BOUNDARIES =    31161130.0000            BOUNDARIES =       9.5281E-02
          CONSTANT HEAD =           0.0000         CONSTANT HEAD =           0.0000
            ZONE CHANGE =    22599562.0000           ZONE CHANGE =       7.6113E-03
       ZONE CHG TIP/TOE =     8686650.0000      ZONE CHG TIP/TOE =       7.6226E-03
            ZONE MIXING =      471819.4062           ZONE MIXING =       4.4498E-03

               TOTAL IN =    62919160.0000              TOTAL IN =           0.1150

             OUT:                                     OUT:
             ----                                     ----
             BOUNDARIES =    36279484.0000            BOUNDARIES =       7.7717E-02
          CONSTANT HEAD =           0.0000         CONSTANT HEAD =           0.0000
            ZONE CHANGE =    29134036.0000           ZONE CHANGE =       3.9551E-02
       ZONE CHG TIP/TOE =     3685593.7500      ZONE CHG TIP/TOE =       6.1783E-03
            ZONE MIXING =           0.0000           ZONE MIXING =           0.0000

              TOTAL OUT =    69099112.0000             TOTAL OUT =           0.1234

               IN - OUT =    -6179952.0000              IN - OUT =      -8.4819E-03

    PERCENT DISCREPANCY =          -9.36     PERCENT DISCREPANCY =          -7.12


 HEAD WILL BE SAVED ON UNIT   37 AT END OF TIME STEP   33, STRESS PERIOD    2

 DRAWDOWN WILL BE SAVED ON UNIT   38 AT END OF TIME STEP   33, STRESS PERIOD    2
1
  VOLUMETRIC BUDGET FOR ENTIRE MODEL AT END OF TIME STEP   33, STRESS PERIOD   2
  ------------------------------------------------------------------------------

     CUMULATIVE VOLUMES      L**3       RATES FOR THIS TIME STEP      L**3/T
     ------------------                 ------------------------

           IN:                                      IN:
           ---                                      ---
             STORAGE =    51731048.0000               STORAGE =       6.2971E-02
       CONSTANT HEAD =           0.0000         CONSTANT HEAD =           0.0000
               WELLS =           0.0000                 WELLS =           0.0000
       RIVER LEAKAGE =   132058880.0000         RIVER LEAKAGE =       4.1000E-02
                  ET =           0.0000                    ET =           0.0000
     HEAD DEP BOUNDS =    38894544.0000       HEAD DEP BOUNDS =           0.1016
            RECHARGE =   522442368.0000              RECHARGE =           0.1887
          SWIADDTOCH =           0.0000            SWIADDTOCH =           0.0000

            TOTAL IN =   745126848.0000              TOTAL IN =           0.3943

          OUT:                                     OUT:
          ----                                     ----
             STORAGE =       18576.1836               STORAGE =       6.0799E-05
       CONSTANT HEAD =           0.0000         CONSTANT HEAD =           0.0000
               WELLS =   203028768.0000                 WELLS =           0.3860
       RIVER LEAKAGE =    21630804.0000         RIVER LEAKAGE =           0.0000
                  ET =   166413648.0000                    ET =           0.0000
     HEAD DEP BOUNDS =   354047872.0000       HEAD DEP BOUNDS =       8.2223E-03
            RECHARGE =           0.0000              RECHARGE =           0.0000
          SWIADDTOCH =           0.0000            SWIADDTOCH =           0.0000

           TOTAL OUT =   745139648.0000             TOTAL OUT =           0.3943

            IN - OUT =      -12800.0000              IN - OUT =      -5.9605E-08

 PERCENT DISCREPANCY =          -0.00     PERCENT DISCREPANCY =          -0.00






         TIME SUMMARY AT END OF TIME STEP   33 IN STRESS PERIOD    2
                    SECONDS     MINUTES      HOURS       DAYS        YEARS
                    -----------------------------------------------------------
   TIME STEP LENGTH 1.57680E+07 2.62800E+05  4380.0      182.50     0.49966    
 STRESS PERIOD TIME 5.20344E+08 8.67240E+06 1.44540E+05  6022.5      16.489    
         TOTAL TIME 3.67395E+09 6.12324E+07 1.02054E+06  42523.      116.42    
1
 
 SOLVING FOR HEAD 

 CELL CONVERSIONS FOR ITER.=  2  LAYER=  1  STEP= 34  PERIOD=   2   (ROW,COL)
    DRY(  7, 26)   DRY(  8, 27)   DRY( 18, 40)   DRY( 36, 31)   
     9 CALLS TO PCG ROUTINE FOR TIME STEP  34 IN STRESS PERIOD    2
    25 TOTAL ITERATIONS

 MAXIMUM HEAD CHANGE FOR EACH ITERATION (1 INDICATES THE FIRST INNER ITERATION):

    HEAD CHANGE    HEAD CHANGE    HEAD CHANGE    HEAD CHANGE    HEAD CHANGE 
   LAYER,ROW,COL  LAYER,ROW,COL  LAYER,ROW,COL  LAYER,ROW,COL  LAYER,ROW,COL
 ---------------------------------------------------------------------------
  1 -0.3900      0  0.9093E-01  0  0.1913E-01  0 -0.4657E-02  0 -0.1142E-02
   (  1, 15,  8)  (  2, 16,  9)  (  2, 14, 11)  (  1, 16,  9)  (  1, 13,  9)
  0 -0.3578E-03  1  0.3191      0  0.3465E-01  0  0.7934E-02  0  0.2237E-02
   (  2, 17,  8)  (  2, 36, 31)  (  2, 37, 29)  (  2, 35, 32)  (  2, 29, 37)
  0  0.4326E-03  1 -0.1093E-01  0 -0.1082E-02  0 -0.2998E-03  1  0.7926E-02
   (  2, 44, 20)  (  2, 54, 36)  (  2, 54, 36)  (  2, 54, 38)  (  2, 54, 36)
  0  0.1223E-03  1 -0.5170E-02  0 -0.8915E-04  1  0.3343E-02  0  0.6444E-04
   (  2, 54, 36)  (  2, 54, 36)  (  2, 54, 36)  (  2, 54, 36)  (  2, 54, 36)
  1 -0.2159E-02  0 -0.4976E-04  1  0.1393E-02  0  0.3408E-04  1 -0.8980E-03
   (  2, 54, 36)  (  2, 54, 36)  (  2, 54, 36)  (  2, 54, 36)  (  2, 54, 36)

 MAXIMUM RESIDUAL FOR EACH ITERATION (1 INDICATES THE FIRST INNER ITERATION):

    RESIDUAL       RESIDUAL       RESIDUAL       RESIDUAL       RESIDUAL    
   LAYER,ROW,COL  LAYER,ROW,COL  LAYER,ROW,COL  LAYER,ROW,COL  LAYER,ROW,COL
 ---------------------------------------------------------------------------
  1 -0.5526E-03  0  0.1794E-03  0 -0.5461E-04  0 -0.1481E-04  0 -0.4314E-05
   (  2, 15,  9)  (  2, 14,  8)  (  1, 15,  8)  (  2, 20,  9)  (  2, 20,  9)
  0 -0.1324E-05  1 -0.2356E-03  0 -0.7329E-04  0 -0.1586E-04  0 -0.3699E-05
   (  2, 16,  9)  (  2, 36, 31)  (  2, 35, 32)  (  2, 35, 32)  (  2, 34, 33)
  0 -0.1289E-05  1 -0.8475E-06  0 -0.3863E-06  0  0.9564E-07  1  0.2739E-06
   (  2, 34, 33)  (  2, 37, 32)  (  2, 37, 32)  (  2, 35, 30)  (  2, 52, 37)
  0  0.1300E-06  1 -0.2199E-06  0 -0.1226E-06  1  0.1577E-06  0  0.8313E-07
   (  2, 52, 37)  (  2, 52, 37)  (  2, 52, 37)  (  2, 52, 37)  (  2, 52, 37)
  1 -0.1035E-06  0 -0.5857E-07  1  0.6913E-07  0  0.3751E-07  1 -0.4463E-07
   (  2, 52, 37)  (  2, 52, 37)  (  2, 52, 37)  (  2, 52, 37)  (  2, 52, 37)



 OUTPUT CONTROL FOR STRESS PERIOD    2   TIME STEP   34
    SAVE HEAD FOR ALL LAYERS
    SAVE DRAWDOWN FOR ALL LAYERS
    SAVE BUDGET
    PRINT BUDGET
 UBDSV1 SAVING "         STORAGE" ON UNIT   9 AT TIME STEP 34, STRESS PERIOD   2
 UBDSV2 SAVING "   CONSTANT HEAD" ON UNIT   9 AT TIME STEP 34, STRESS PERIOD   2
 UBDSV1 SAVING "FLOW RIGHT FACE " ON UNIT   9 AT TIME STEP 34, STRESS PERIOD   2
 UBDSV1 SAVING "FLOW FRONT FACE " ON UNIT   9 AT TIME STEP 34, STRESS PERIOD   2
 UBDSV1 SAVING "FLOW LOWER FACE " ON UNIT   9 AT TIME STEP 34, STRESS PERIOD   2
 UBDSV4 SAVING "           WELLS" ON UNIT   9 AT TIME STEP 34, STRESS PERIOD   2
 UBDSV4 SAVING "   RIVER LEAKAGE" ON UNIT   9 AT TIME STEP 34, STRESS PERIOD   2
 UBDSV3 SAVING "              ET" ON UNIT   9 AT TIME STEP 34, STRESS PERIOD   2
 UBDSV4 SAVING " HEAD DEP BOUNDS" ON UNIT   9 AT TIME STEP 34, STRESS PERIOD   2
 UBDSV3 SAVING "        RECHARGE" ON UNIT   9 AT TIME STEP 34, STRESS PERIOD   2
 SOLVING FOR ZETA FOR LAYER     1 ZONE     2
     2 CALLS TO PCG ROUTINE FOR TIME STEP  34 IN STRESS PERIOD    2
     4 TOTAL ITERATIONS

 MAXIMUM HEAD CHANGE FOR EACH ITERATION (1 INDICATES THE FIRST INNER ITERATION):

    HEAD CHANGE    HEAD CHANGE    HEAD CHANGE    HEAD CHANGE    HEAD CHANGE 
   LAYER,ROW,COL  LAYER,ROW,COL  LAYER,ROW,COL  LAYER,ROW,COL  LAYER,ROW,COL
 ---------------------------------------------------------------------------
  1   23.95      0  0.1195      0  0.8740E-03  1  0.1779E-04
   (  1, 20,  9)  (  1, 21,  8)  (  1, 13,  2)  (  1, 12,  3)

 MAXIMUM RESIDUAL FOR EACH ITERATION (1 INDICATES THE FIRST INNER ITERATION):

    RESIDUAL       RESIDUAL       RESIDUAL       RESIDUAL       RESIDUAL    
   LAYER,ROW,COL  LAYER,ROW,COL  LAYER,ROW,COL  LAYER,ROW,COL  LAYER,ROW,COL
 ---------------------------------------------------------------------------
  1 -0.3320E-04  0 -0.2728E-06  0 -0.6052E-08  1 -0.9814E-10
   (  1, 21,  8)  (  1, 13,  2)  (  1, 12,  3)  (  1, 13,  2)


 SOLVING FOR ZETA FOR LAYER     2 ZONE     2
     2 CALLS TO PCG ROUTINE FOR TIME STEP  34 IN STRESS PERIOD    2
     5 TOTAL ITERATIONS

 MAXIMUM HEAD CHANGE FOR EACH ITERATION (1 INDICATES THE FIRST INNER ITERATION):

    HEAD CHANGE    HEAD CHANGE    HEAD CHANGE    HEAD CHANGE    HEAD CHANGE 
   LAYER,ROW,COL  LAYER,ROW,COL  LAYER,ROW,COL  LAYER,ROW,COL  LAYER,ROW,COL
 ---------------------------------------------------------------------------
  1   5.308      0  0.6507E-01  0  0.1305E-02  0  0.1561E-04  1 -0.3173E-06
   (  1, 11,  7)  (  1, 12,  6)  (  1, 14,  5)  (  1, 13,  6)  (  1,  8,  6)

 MAXIMUM RESIDUAL FOR EACH ITERATION (1 INDICATES THE FIRST INNER ITERATION):

    RESIDUAL       RESIDUAL       RESIDUAL       RESIDUAL       RESIDUAL    
   LAYER,ROW,COL  LAYER,ROW,COL  LAYER,ROW,COL  LAYER,ROW,COL  LAYER,ROW,COL
 ---------------------------------------------------------------------------
  1 -0.2403E-04  0 -0.3934E-06  0 -0.6295E-08  0 -0.1157E-09  1 -0.2792E-11
   (  1, 12,  6)  (  1, 13,  5)  (  1, 24,  6)  (  1, 23,  7)  (  1, 24,  6)


 UBUDSV SAVING "      ZETASRF  1" ON UNIT170 AT TIME STEP 34, STRESS PERIOD    2


                      VOLUMETRIC SWI ZONE BUDGET FOR ENTIRE MODEL
                     AT END OF TIME STEP   34 IN STRESS PERIOD   2
                                      ZONE     1
  -----------------------------------------------------------------------------------

        CUMULATIVE VOLUMES      L**3       RATES FOR THIS TIME STEP      L**3/T
        ------------------                 ------------------------

              IN:                                      IN:
              ---                                      ---
             BOUNDARIES =   629490048.0000            BOUNDARIES =           0.2144
          CONSTANT HEAD =           0.0000         CONSTANT HEAD =           0.0000
            ZONE CHANGE =   150946160.0000           ZONE CHANGE =       8.4997E-02
       ZONE CHG TIP/TOE =     6393832.0000      ZONE CHG TIP/TOE =       7.1152E-03
            ZONE MIXING =           0.0000           ZONE MIXING =           0.0000

               TOTAL IN =   786830080.0000              TOTAL IN =           0.3066

             OUT:                                     OUT:
             ----                                     ----
             BOUNDARIES =   677725824.0000            BOUNDARIES =           0.3177
          CONSTANT HEAD =           0.0000         CONSTANT HEAD =           0.0000
            ZONE CHANGE =    26111734.0000           ZONE CHANGE =       6.3953E-03
       ZONE CHG TIP/TOE =     5575009.5000      ZONE CHG TIP/TOE =       6.1075E-03
            ZONE MIXING =      471819.4062           ZONE MIXING =           0.0000

              TOTAL OUT =   709884416.0000             TOTAL OUT =           0.3302

               IN - OUT =    76945664.0000              IN - OUT =      -2.3678E-02

    PERCENT DISCREPANCY =          10.28     PERCENT DISCREPANCY =          -7.44



                      VOLUMETRIC SWI ZONE BUDGET FOR ENTIRE MODEL
                     AT END OF TIME STEP   34 IN STRESS PERIOD   2
                                      ZONE     2
  -----------------------------------------------------------------------------------

        CUMULATIVE VOLUMES      L**3       RATES FOR THIS TIME STEP      L**3/T
        ------------------                 ------------------------

              IN:                                      IN:
              ---                                      ---
             BOUNDARIES =    32676418.0000            BOUNDARIES =       9.6099E-02
          CONSTANT HEAD =           0.0000         CONSTANT HEAD =           0.0000
            ZONE CHANGE =    22705280.0000           ZONE CHANGE =       6.7046E-03
       ZONE CHG TIP/TOE =     9050190.0000      ZONE CHG TIP/TOE =       2.3056E-02
            ZONE MIXING =      471819.4062           ZONE MIXING =           0.0000

               TOTAL IN =    64903704.0000              TOTAL IN =           0.1259

             OUT:                                     OUT:
             ----                                     ----
             BOUNDARIES =    37119724.0000            BOUNDARIES =       5.3288E-02
          CONSTANT HEAD =           0.0000         CONSTANT HEAD =           0.0000
            ZONE CHANGE =    29951228.0000           ZONE CHANGE =       5.1826E-02
       ZONE CHG TIP/TOE =     3797786.0000      ZONE CHG TIP/TOE =       7.1152E-03
            ZONE MIXING =           0.0000           ZONE MIXING =           0.0000

              TOTAL OUT =    70868736.0000             TOTAL OUT =           0.1122

               IN - OUT =    -5965032.0000              IN - OUT =       1.3630E-02

    PERCENT DISCREPANCY =          -8.79     PERCENT DISCREPANCY =          11.45


 HEAD WILL BE SAVED ON UNIT   37 AT END OF TIME STEP   34, STRESS PERIOD    2

 DRAWDOWN WILL BE SAVED ON UNIT   38 AT END OF TIME STEP   34, STRESS PERIOD    2
1
  VOLUMETRIC BUDGET FOR ENTIRE MODEL AT END OF TIME STEP   34, STRESS PERIOD   2
  ------------------------------------------------------------------------------

     CUMULATIVE VOLUMES      L**3       RATES FOR THIS TIME STEP      L**3/T
     ------------------                 ------------------------

           IN:                                      IN:
           ---                                      ---
             STORAGE =    52684720.0000               STORAGE =       6.0481E-02
       CONSTANT HEAD =           0.0000         CONSTANT HEAD =           0.0000
               WELLS =           0.0000                 WELLS =           0.0000
       RIVER LEAKAGE =   132705368.0000         RIVER LEAKAGE =       4.1000E-02
                  ET =           0.0000                    ET =           0.0000
     HEAD DEP BOUNDS =    40510688.0000       HEAD DEP BOUNDS =           0.1025
            RECHARGE =   525406368.0000              RECHARGE =           0.1880
          SWIADDTOCH =           0.0000            SWIADDTOCH =           0.0000

            TOTAL IN =   751307136.0000              TOTAL IN =           0.3920

          OUT:                                     OUT:
          ----                                     ----
             STORAGE =       18648.7676               STORAGE =       4.6032E-06
       CONSTANT HEAD =           0.0000         CONSTANT HEAD =           0.0000
               WELLS =   209083680.0000                 WELLS =           0.3840
       RIVER LEAKAGE =    21630804.0000         RIVER LEAKAGE =           0.0000
                  ET =   166413648.0000                    ET =           0.0000
     HEAD DEP BOUNDS =   354173184.0000       HEAD DEP BOUNDS =       7.9478E-03
            RECHARGE =           0.0000              RECHARGE =           0.0000
          SWIADDTOCH =           0.0000            SWIADDTOCH =           0.0000

           TOTAL OUT =   751319936.0000             TOTAL OUT =           0.3920

            IN - OUT =      -12800.0000              IN - OUT =      -2.9802E-08

 PERCENT DISCREPANCY =          -0.00     PERCENT DISCREPANCY =          -0.00






         TIME SUMMARY AT END OF TIME STEP   34 IN STRESS PERIOD    2
                    SECONDS     MINUTES      HOURS       DAYS        YEARS
                    -----------------------------------------------------------
   TIME STEP LENGTH 1.57680E+07 2.62800E+05  4380.0      182.50     0.49966    
 STRESS PERIOD TIME 5.36112E+08 8.93520E+06 1.48920E+05  6205.0      16.988    
         TOTAL TIME 3.68971E+09 6.14952E+07 1.02492E+06  42705.      116.92    
1
 
 SOLVING FOR HEAD 
    11 CALLS TO PCG ROUTINE FOR TIME STEP  35 IN STRESS PERIOD    2
    27 TOTAL ITERATIONS

 MAXIMUM HEAD CHANGE FOR EACH ITERATION (1 INDICATES THE FIRST INNER ITERATION):

    HEAD CHANGE    HEAD CHANGE    HEAD CHANGE    HEAD CHANGE    HEAD CHANGE 
   LAYER,ROW,COL  LAYER,ROW,COL  LAYER,ROW,COL  LAYER,ROW,COL  LAYER,ROW,COL
 ---------------------------------------------------------------------------
  1 -0.2786      0 -0.9372E-01  0 -0.2125E-01  0 -0.4344E-02  0 -0.1484E-02
   (  1, 16,  9)  (  2, 14, 10)  (  2, 16,  8)  (  2, 11,  7)  (  2,  6,  8)
  0 -0.6704E-03  1  0.2149E-01  0  0.7496E-02  0  0.1562E-02  0  0.3367E-03
   (  2,  5, 11)  (  2, 54, 34)  (  2, 54, 34)  (  2, 54, 34)  (  2, 54, 38)
  1 -0.1175E-01  0 -0.5716E-03  1  0.7483E-02  0  0.2305E-03  1  0.5642E-02
   (  2, 54, 38)  (  2, 54, 38)  (  2, 54, 38)  (  2, 54, 38)  (  2, 54, 37)
  0 -0.8411E-04  1  0.3950E-02  0  0.6428E-04  1 -0.2931E-02  0 -0.4462E-04
   (  2, 54, 36)  (  2, 54, 36)  (  2, 54, 36)  (  2, 54, 36)  (  2, 54, 36)
  1  0.2166E-02  0  0.3741E-04  1 -0.1605E-02  0 -0.2815E-04  1  0.1186E-02
   (  2, 54, 36)  (  2, 54, 36)  (  2, 54, 36)  (  2, 54, 36)  (  2, 54, 36)
  0  0.2326E-04  1 -0.8768E-03
   (  2, 54, 36)  (  2, 54, 36)

 MAXIMUM RESIDUAL FOR EACH ITERATION (1 INDICATES THE FIRST INNER ITERATION):

    RESIDUAL       RESIDUAL       RESIDUAL       RESIDUAL       RESIDUAL    
   LAYER,ROW,COL  LAYER,ROW,COL  LAYER,ROW,COL  LAYER,ROW,COL  LAYER,ROW,COL
 ---------------------------------------------------------------------------
  1 -0.6180E-03  0  0.1465E-03  0 -0.5905E-04  0 -0.2144E-04  0  0.6228E-05
   (  2, 16,  9)  (  2, 17,  9)  (  1, 20,  9)  (  1, 20,  9)  (  2, 20,  9)
  0  0.1795E-05  1  0.6890E-05  0 -0.2607E-05  0  0.7393E-06  0 -0.1680E-06
   (  2, 20,  9)  (  2, 21,  7)  (  2, 44, 29)  (  2, 45, 28)  (  2, 11, 18)
  1 -0.6667E-06  0 -0.2154E-06  1  0.3358E-06  0  0.1668E-06  1 -0.2357E-06
   (  2, 18, 10)  (  2, 20,  9)  (  2,  5, 11)  (  2, 52, 37)  (  2, 52, 37)
  0 -0.1224E-06  1  0.1718E-06  0  0.9930E-07  1 -0.1308E-06  0 -0.6840E-07
   (  2, 52, 37)  (  2, 52, 37)  (  2, 52, 37)  (  2, 52, 37)  (  2, 52, 37)
  1  0.9527E-07  0  0.5422E-07  1 -0.7248E-07  0 -0.3857E-07  1  0.5339E-07
   (  2, 52, 37)  (  2, 52, 37)  (  2, 52, 37)  (  2, 52, 37)  (  2, 52, 37)
  0  0.3013E-07  1 -0.4038E-07
   (  2, 52, 37)  (  2, 52, 37)



 OUTPUT CONTROL FOR STRESS PERIOD    2   TIME STEP   35
    SAVE HEAD FOR ALL LAYERS
    SAVE DRAWDOWN FOR ALL LAYERS
    SAVE BUDGET
    PRINT BUDGET
 UBDSV1 SAVING "         STORAGE" ON UNIT   9 AT TIME STEP 35, STRESS PERIOD   2
 UBDSV2 SAVING "   CONSTANT HEAD" ON UNIT   9 AT TIME STEP 35, STRESS PERIOD   2
 UBDSV1 SAVING "FLOW RIGHT FACE " ON UNIT   9 AT TIME STEP 35, STRESS PERIOD   2
 UBDSV1 SAVING "FLOW FRONT FACE " ON UNIT   9 AT TIME STEP 35, STRESS PERIOD   2
 UBDSV1 SAVING "FLOW LOWER FACE " ON UNIT   9 AT TIME STEP 35, STRESS PERIOD   2
 UBDSV4 SAVING "           WELLS" ON UNIT   9 AT TIME STEP 35, STRESS PERIOD   2
 UBDSV4 SAVING "   RIVER LEAKAGE" ON UNIT   9 AT TIME STEP 35, STRESS PERIOD   2
 UBDSV3 SAVING "              ET" ON UNIT   9 AT TIME STEP 35, STRESS PERIOD   2
 UBDSV4 SAVING " HEAD DEP BOUNDS" ON UNIT   9 AT TIME STEP 35, STRESS PERIOD   2
 UBDSV3 SAVING "        RECHARGE" ON UNIT   9 AT TIME STEP 35, STRESS PERIOD   2
 SOLVING FOR ZETA FOR LAYER     1 ZONE     2
     2 CALLS TO PCG ROUTINE FOR TIME STEP  35 IN STRESS PERIOD    2
     4 TOTAL ITERATIONS

 MAXIMUM HEAD CHANGE FOR EACH ITERATION (1 INDICATES THE FIRST INNER ITERATION):

    HEAD CHANGE    HEAD CHANGE    HEAD CHANGE    HEAD CHANGE    HEAD CHANGE 
   LAYER,ROW,COL  LAYER,ROW,COL  LAYER,ROW,COL  LAYER,ROW,COL  LAYER,ROW,COL
 ---------------------------------------------------------------------------
  1   30.90      0  0.4826E-01  0  0.6790E-03  1 -0.1208E-04
   (  1, 18, 10)  (  1, 18, 11)  (  1, 13,  2)  (  1, 18, 11)

 MAXIMUM RESIDUAL FOR EACH ITERATION (1 INDICATES THE FIRST INNER ITERATION):

    RESIDUAL       RESIDUAL       RESIDUAL       RESIDUAL       RESIDUAL    
   LAYER,ROW,COL  LAYER,ROW,COL  LAYER,ROW,COL  LAYER,ROW,COL  LAYER,ROW,COL
 ---------------------------------------------------------------------------
  1 -0.1469E-04  0 -0.2149E-06  0  0.3364E-08  1 -0.4894E-10
   (  1, 12,  3)  (  1, 13,  2)  (  1, 18, 11)  (  1, 13,  2)


 SOLVING FOR ZETA FOR LAYER     2 ZONE     2
     2 CALLS TO PCG ROUTINE FOR TIME STEP  35 IN STRESS PERIOD    2
     5 TOTAL ITERATIONS

 MAXIMUM HEAD CHANGE FOR EACH ITERATION (1 INDICATES THE FIRST INNER ITERATION):

    HEAD CHANGE    HEAD CHANGE    HEAD CHANGE    HEAD CHANGE    HEAD CHANGE 
   LAYER,ROW,COL  LAYER,ROW,COL  LAYER,ROW,COL  LAYER,ROW,COL  LAYER,ROW,COL
 ---------------------------------------------------------------------------
  1   8.128      0  0.6906E-01  0  0.1301E-02  0  0.1452E-04  1 -0.3567E-06
   (  1, 20,  9)  (  1, 23,  7)  (  1, 24,  6)  (  1, 21,  9)  (  1, 21,  9)

 MAXIMUM RESIDUAL FOR EACH ITERATION (1 INDICATES THE FIRST INNER ITERATION):

    RESIDUAL       RESIDUAL       RESIDUAL       RESIDUAL       RESIDUAL    
   LAYER,ROW,COL  LAYER,ROW,COL  LAYER,ROW,COL  LAYER,ROW,COL  LAYER,ROW,COL
 ---------------------------------------------------------------------------
  1 -0.2614E-04  0 -0.4544E-06  0 -0.5122E-08  0 -0.9057E-10  1 -0.1784E-11
   (  1, 23,  7)  (  1, 24,  6)  (  1, 23,  7)  (  1, 22,  8)  (  1, 23,  7)


 UBUDSV SAVING "      ZETASRF  1" ON UNIT170 AT TIME STEP 35, STRESS PERIOD    2


                      VOLUMETRIC SWI ZONE BUDGET FOR ENTIRE MODEL
                     AT END OF TIME STEP   35 IN STRESS PERIOD   2
                                      ZONE     1
  -----------------------------------------------------------------------------------

        CUMULATIVE VOLUMES      L**3       RATES FOR THIS TIME STEP      L**3/T
        ------------------                 ------------------------

              IN:                                      IN:
              ---                                      ---
             BOUNDARIES =   632874304.0000            BOUNDARIES =           0.2146
          CONSTANT HEAD =           0.0000         CONSTANT HEAD =           0.0000
            ZONE CHANGE =   152237632.0000           ZONE CHANGE =       8.1905E-02
       ZONE CHG TIP/TOE =     6457552.0000      ZONE CHG TIP/TOE =       4.0411E-03
            ZONE MIXING =           0.0000           ZONE MIXING =           0.0000

               TOTAL IN =   791569472.0000              TOTAL IN =           0.3006

             OUT:                                     OUT:
             ----                                     ----
             BOUNDARIES =   682425088.0000            BOUNDARIES =           0.2980
          CONSTANT HEAD =           0.0000         CONSTANT HEAD =           0.0000
            ZONE CHANGE =    26282060.0000           ZONE CHANGE =       1.0802E-02
       ZONE CHG TIP/TOE =     5592633.5000      ZONE CHG TIP/TOE =       1.1177E-03
            ZONE MIXING =      546934.6250           ZONE MIXING =       4.7638E-03

              TOTAL OUT =   714846720.0000             TOTAL OUT =           0.3147

               IN - OUT =    76722752.0000              IN - OUT =      -1.4134E-02

    PERCENT DISCREPANCY =          10.19     PERCENT DISCREPANCY =          -4.59



                      VOLUMETRIC SWI ZONE BUDGET FOR ENTIRE MODEL
                     AT END OF TIME STEP   35 IN STRESS PERIOD   2
                                      ZONE     2
  -----------------------------------------------------------------------------------

        CUMULATIVE VOLUMES      L**3       RATES FOR THIS TIME STEP      L**3/T
        ------------------                 ------------------------

              IN:                                      IN:
              ---                                      ---
             BOUNDARIES =    34207928.0000            BOUNDARIES =       9.7128E-02
          CONSTANT HEAD =           0.0000         CONSTANT HEAD =           0.0000
            ZONE CHANGE =    22841880.0000           ZONE CHANGE =       8.6631E-03
       ZONE CHG TIP/TOE =     9242553.0000      ZONE CHG TIP/TOE =       1.2200E-02
            ZONE MIXING =      546934.6250           ZONE MIXING =       4.7638E-03

               TOTAL IN =    66839296.0000              TOTAL IN =           0.1228

             OUT:                                     OUT:
             ----                                     ----
             BOUNDARIES =    38266324.0000            BOUNDARIES =       7.2717E-02
          CONSTANT HEAD =           0.0000         CONSTANT HEAD =           0.0000
            ZONE CHANGE =    30651584.0000           ZONE CHANGE =       4.4416E-02
       ZONE CHG TIP/TOE =     3818091.0000      ZONE CHG TIP/TOE =       1.2877E-03
            ZONE MIXING =           0.0000           ZONE MIXING =           0.0000

              TOTAL OUT =    72736000.0000             TOTAL OUT =           0.1184

               IN - OUT =    -5896704.0000              IN - OUT =       4.3335E-03

    PERCENT DISCREPANCY =          -8.45     PERCENT DISCREPANCY =           3.59


 HEAD WILL BE SAVED ON UNIT   37 AT END OF TIME STEP   35, STRESS PERIOD    2

 DRAWDOWN WILL BE SAVED ON UNIT   38 AT END OF TIME STEP   35, STRESS PERIOD    2
1
  VOLUMETRIC BUDGET FOR ENTIRE MODEL AT END OF TIME STEP   35, STRESS PERIOD   2
  ------------------------------------------------------------------------------

     CUMULATIVE VOLUMES      L**3       RATES FOR THIS TIME STEP      L**3/T
     ------------------                 ------------------------

           IN:                                      IN:
           ---                                      ---
             STORAGE =    53615068.0000               STORAGE =       5.9002E-02
       CONSTANT HEAD =           0.0000         CONSTANT HEAD =           0.0000
               WELLS =           0.0000                 WELLS =           0.0000
       RIVER LEAKAGE =   133351856.0000         RIVER LEAKAGE =       4.1000E-02
                  ET =           0.0000                    ET =           0.0000
     HEAD DEP BOUNDS =    42145960.0000       HEAD DEP BOUNDS =           0.1037
            RECHARGE =   528370368.0000              RECHARGE =           0.1880
          SWIADDTOCH =           0.0000            SWIADDTOCH =           0.0000

            TOTAL IN =   757483264.0000              TOTAL IN =           0.3917

          OUT:                                     OUT:
          ----                                     ----
             STORAGE =       18915.1250               STORAGE =       1.6892E-05
       CONSTANT HEAD =           0.0000         CONSTANT HEAD =           0.0000
               WELLS =   215138592.0000                 WELLS =           0.3840
       RIVER LEAKAGE =    21630804.0000         RIVER LEAKAGE =           0.0000
                  ET =   166413648.0000                    ET =           0.0000
     HEAD DEP BOUNDS =   354294112.0000       HEAD DEP BOUNDS =       7.6694E-03
            RECHARGE =           0.0000              RECHARGE =           0.0000
          SWIADDTOCH =           0.0000            SWIADDTOCH =           0.0000

           TOTAL OUT =   757496064.0000             TOTAL OUT =           0.3917

            IN - OUT =      -12800.0000              IN - OUT =      -5.9605E-08

 PERCENT DISCREPANCY =          -0.00     PERCENT DISCREPANCY =          -0.00






         TIME SUMMARY AT END OF TIME STEP   35 IN STRESS PERIOD    2
                    SECONDS     MINUTES      HOURS       DAYS        YEARS
                    -----------------------------------------------------------
   TIME STEP LENGTH 1.57680E+07 2.62800E+05  4380.0      182.50     0.49966    
 STRESS PERIOD TIME 5.51880E+08 9.19800E+06 1.53300E+05  6387.5      17.488    
         TOTAL TIME 3.70548E+09 6.17580E+07 1.02930E+06  42888.      117.42    
1
 
 SOLVING FOR HEAD 

 CELL CONVERSIONS FOR ITER.=  2  LAYER=  1  STEP= 36  PERIOD=   2   (ROW,COL)
    DRY( 37, 34)   
   100 CALLS TO PCG ROUTINE FOR TIME STEP  36 IN STRESS PERIOD    2
   206 TOTAL ITERATIONS

 MAXIMUM HEAD CHANGE FOR EACH ITERATION (1 INDICATES THE FIRST INNER ITERATION):

    HEAD CHANGE    HEAD CHANGE    HEAD CHANGE    HEAD CHANGE    HEAD CHANGE 
   LAYER,ROW,COL  LAYER,ROW,COL  LAYER,ROW,COL  LAYER,ROW,COL  LAYER,ROW,COL
 ---------------------------------------------------------------------------
  1 -0.2687      0 -0.5701E-01  0  0.1499E-01  0 -0.3555E-02  0 -0.1198E-02
   (  1, 19, 10)  (  1, 20, 10)  (  1, 19, 10)  (  2, 14,  6)  (  2,  6, 11)
  0  0.4963E-03  1 -0.5840E-01  0  0.1329E-01  0  0.2393E-02  0  0.4894E-03
   (  2,  5, 11)  (  2, 37, 34)  (  2, 37, 34)  (  2, 37, 34)  (  2, 37, 34)
  1  0.2259E-01  0  0.4669E-03  1 -0.2298E-01  0 -0.4429E-03  1  0.2280E-01
   (  1, 46, 27)  (  1, 46, 27)  (  1, 46, 27)  (  1, 46, 27)  (  1, 46, 27)
  0  0.5715E-03  1 -0.2281E-01  0 -0.4608E-03  1  0.2267E-01  0  0.5852E-03
   (  1, 46, 27)  (  1, 46, 27)  (  1, 46, 27)  (  1, 46, 27)  (  1, 46, 27)
  1 -0.2277E-01  0 -0.4641E-03  1  0.2264E-01  0  0.5895E-03  1 -0.2276E-01
   (  1, 46, 27)  (  1, 46, 27)  (  1, 46, 27)  (  1, 46, 27)  (  1, 46, 27)
  0 -0.4657E-03  1  0.2263E-01  0  0.5919E-03  1 -0.2276E-01  0 -0.4654E-03
   (  1, 46, 27)  (  1, 46, 27)  (  1, 46, 27)  (  1, 46, 27)  (  1, 46, 27)
  1  0.2263E-01  0  0.5922E-03  1 -0.2277E-01  0 -0.4636E-03  1  0.2264E-01
   (  1, 46, 27)  (  1, 46, 27)  (  1, 46, 27)  (  1, 46, 27)  (  1, 46, 27)
  0  0.5905E-03  1 -0.2276E-01  0 -0.4655E-03  1  0.2263E-01  0  0.5923E-03
   (  1, 46, 27)  (  1, 46, 27)  (  1, 46, 27)  (  1, 46, 27)  (  1, 46, 27)
  1 -0.2276E-01  0 -0.4653E-03  1  0.2263E-01  0  0.5923E-03  1 -0.2277E-01
   (  1, 46, 27)  (  1, 46, 27)  (  1, 46, 27)  (  1, 46, 27)  (  1, 46, 27)
  0 -0.4636E-03  1  0.2264E-01  0  0.5906E-03  1 -0.2277E-01  0 -0.4638E-03
   (  1, 46, 27)  (  1, 46, 27)  (  1, 46, 27)  (  1, 46, 27)  (  1, 46, 27)
  1  0.2264E-01  0  0.5905E-03  1 -0.2276E-01  0 -0.4656E-03  1  0.2263E-01
   (  1, 46, 27)  (  1, 46, 27)  (  1, 46, 27)  (  1, 46, 27)  (  1, 46, 27)
  0  0.5923E-03  1 -0.2276E-01  0 -0.4654E-03  1  0.2263E-01  0  0.5923E-03
   (  1, 46, 27)  (  1, 46, 27)  (  1, 46, 27)  (  1, 46, 27)  (  1, 46, 27)
  1 -0.2277E-01  0 -0.4636E-03  1  0.2264E-01  0  0.5906E-03  1 -0.2276E-01
   (  1, 46, 27)  (  1, 46, 27)  (  1, 46, 27)  (  1, 46, 27)  (  1, 46, 27)
  0 -0.4655E-03  1  0.2263E-01  0  0.5923E-03  1 -0.2276E-01  0 -0.4653E-03
   (  1, 46, 27)  (  1, 46, 27)  (  1, 46, 27)  (  1, 46, 27)  (  1, 46, 27)
  1  0.2263E-01  0  0.5923E-03  1 -0.2276E-01  0 -0.4653E-03  1  0.2263E-01
   (  1, 46, 27)  (  1, 46, 27)  (  1, 46, 27)  (  1, 46, 27)  (  1, 46, 27)
  0  0.5924E-03  1 -0.2276E-01  0 -0.4653E-03  1  0.2263E-01  0  0.5924E-03
   (  1, 46, 27)  (  1, 46, 27)  (  1, 46, 27)  (  1, 46, 27)  (  1, 46, 27)
  1 -0.2276E-01  0 -0.4653E-03  1  0.2263E-01  0  0.5924E-03  1 -0.2277E-01
   (  1, 46, 27)  (  1, 46, 27)  (  1, 46, 27)  (  1, 46, 27)  (  1, 46, 27)
  0 -0.4636E-03  1  0.2264E-01  0  0.5906E-03  1 -0.2277E-01  0 -0.4638E-03
   (  1, 46, 27)  (  1, 46, 27)  (  1, 46, 27)  (  1, 46, 27)  (  1, 46, 27)
  1  0.2264E-01  0  0.5906E-03  1 -0.2276E-01  0 -0.4656E-03  1  0.2263E-01
   (  1, 46, 27)  (  1, 46, 27)  (  1, 46, 27)  (  1, 46, 27)  (  1, 46, 27)
  0  0.5923E-03  1 -0.2277E-01  0 -0.4637E-03  1  0.2264E-01  0  0.5905E-03
   (  1, 46, 27)  (  1, 46, 27)  (  1, 46, 27)  (  1, 46, 27)  (  1, 46, 27)
  1 -0.2276E-01  0 -0.4656E-03  1  0.2263E-01  0  0.5923E-03  1 -0.2276E-01
   (  1, 46, 27)  (  1, 46, 27)  (  1, 46, 27)  (  1, 46, 27)  (  1, 46, 27)
  0 -0.4653E-03  1  0.2263E-01  0  0.5924E-03  1 -0.2277E-01  0 -0.4636E-03
   (  1, 46, 27)  (  1, 46, 27)  (  1, 46, 27)  (  1, 46, 27)  (  1, 46, 27)
  1  0.2264E-01  0  0.5906E-03  1 -0.2276E-01  0 -0.4655E-03  1  0.2263E-01
   (  1, 46, 27)  (  1, 46, 27)  (  1, 46, 27)  (  1, 46, 27)  (  1, 46, 27)
  0  0.5924E-03  1 -0.2277E-01  0 -0.4636E-03  1  0.2264E-01  0  0.5906E-03
   (  1, 46, 27)  (  1, 46, 27)  (  1, 46, 27)  (  1, 46, 27)  (  1, 46, 27)
  1 -0.2276E-01  0 -0.4656E-03  1  0.2263E-01  0  0.5923E-03  1 -0.2276E-01
   (  1, 46, 27)  (  1, 46, 27)  (  1, 46, 27)  (  1, 46, 27)  (  1, 46, 27)
  0 -0.4653E-03  1  0.2263E-01  0  0.5924E-03  1 -0.2276E-01  0 -0.4653E-03
   (  1, 46, 27)  (  1, 46, 27)  (  1, 46, 27)  (  1, 46, 27)  (  1, 46, 27)
  1  0.2263E-01  0  0.5924E-03  1 -0.2277E-01  0 -0.4636E-03  1  0.2264E-01
   (  1, 46, 27)  (  1, 46, 27)  (  1, 46, 27)  (  1, 46, 27)  (  1, 46, 27)
  0  0.5906E-03  1 -0.2276E-01  0 -0.4655E-03  1  0.2263E-01  0  0.5924E-03
   (  1, 46, 27)  (  1, 46, 27)  (  1, 46, 27)  (  1, 46, 27)  (  1, 46, 27)
  1 -0.2277E-01  0 -0.4636E-03  1  0.2264E-01  0  0.5906E-03  1 -0.2276E-01
   (  1, 46, 27)  (  1, 46, 27)  (  1, 46, 27)  (  1, 46, 27)  (  1, 46, 27)
  0 -0.4656E-03  1  0.2263E-01  0  0.5923E-03  1 -0.2277E-01  0 -0.4636E-03
   (  1, 46, 27)  (  1, 46, 27)  (  1, 46, 27)  (  1, 46, 27)  (  1, 46, 27)
  1  0.2264E-01  0  0.5906E-03  1 -0.2276E-01  0 -0.4656E-03  1  0.2263E-01
   (  1, 46, 27)  (  1, 46, 27)  (  1, 46, 27)  (  1, 46, 27)  (  1, 46, 27)
  0  0.5923E-03  1 -0.2276E-01  0 -0.4653E-03  1  0.2263E-01  0  0.5924E-03
   (  1, 46, 27)  (  1, 46, 27)  (  1, 46, 27)  (  1, 46, 27)  (  1, 46, 27)
  1 -0.2276E-01  0 -0.4653E-03  1  0.2263E-01  0  0.5924E-03  1 -0.2277E-01
   (  1, 46, 27)  (  1, 46, 27)  (  1, 46, 27)  (  1, 46, 27)  (  1, 46, 27)
  0 -0.4636E-03  1  0.2264E-01  0  0.5906E-03  1 -0.2276E-01  0 -0.4655E-03
   (  1, 46, 27)  (  1, 46, 27)  (  1, 46, 27)  (  1, 46, 27)  (  1, 46, 27)
  1  0.2263E-01  0  0.5924E-03  1 -0.2277E-01  0 -0.4636E-03  1  0.2264E-01
   (  1, 46, 27)  (  1, 46, 27)  (  1, 46, 27)  (  1, 46, 27)  (  1, 46, 27)
  0  0.5906E-03  1 -0.2276E-01  0 -0.4656E-03  1  0.2263E-01  0  0.5923E-03
   (  1, 46, 27)  (  1, 46, 27)  (  1, 46, 27)  (  1, 46, 27)  (  1, 46, 27)
  1 -0.2276E-01  0 -0.4653E-03  1  0.2263E-01  0  0.5924E-03  1 -0.2276E-01
   (  1, 46, 27)  (  1, 46, 27)  (  1, 46, 27)  (  1, 46, 27)  (  1, 46, 27)
  0 -0.4653E-03  1  0.2263E-01  0  0.5924E-03  1 -0.2276E-01  0 -0.4653E-03
   (  1, 46, 27)  (  1, 46, 27)  (  1, 46, 27)  (  1, 46, 27)  (  1, 46, 27)
  1  0.2263E-01  0  0.5924E-03  1 -0.2276E-01  0 -0.4653E-03  1  0.2263E-01
   (  1, 46, 27)  (  1, 46, 27)  (  1, 46, 27)  (  1, 46, 27)  (  1, 46, 27)
  0  0.5924E-03  1 -0.2276E-01  0 -0.4653E-03  1  0.2263E-01  0  0.5924E-03
   (  1, 46, 27)  (  1, 46, 27)  (  1, 46, 27)  (  1, 46, 27)  (  1, 46, 27)
  1 -0.2276E-01  0 -0.4653E-03  1  0.2263E-01  0  0.5924E-03  1 -0.2277E-01
   (  1, 46, 27)  (  1, 46, 27)  (  1, 46, 27)  (  1, 46, 27)  (  1, 46, 27)
  0 -0.4636E-03
   (  1, 46, 27)

 MAXIMUM RESIDUAL FOR EACH ITERATION (1 INDICATES THE FIRST INNER ITERATION):

    RESIDUAL       RESIDUAL       RESIDUAL       RESIDUAL       RESIDUAL    
   LAYER,ROW,COL  LAYER,ROW,COL  LAYER,ROW,COL  LAYER,ROW,COL  LAYER,ROW,COL
 ---------------------------------------------------------------------------
  1  0.4273E-03  0 -0.1843E-03  0 -0.4783E-04  0  0.1442E-04  0  0.4539E-05
   (  1, 20, 10)  (  2, 20,  9)  (  2, 20,  9)  (  2, 19, 10)  (  2, 19, 10)
  0  0.1567E-05  1  0.3434E-03  0  0.3749E-04  0  0.8422E-05  0  0.1982E-05
   (  2, 19, 10)  (  1, 46, 27)  (  1, 46, 27)  (  1, 46, 27)  (  1, 46, 27)
  1 -0.1699E-05  0 -0.7476E-06  1  0.2530E-05  0  0.1155E-05  1 -0.2778E-05
   (  2, 46, 27)  (  2, 46, 27)  (  2, 46, 27)  (  2, 46, 27)  (  2, 46, 27)
  0 -0.1200E-05  1  0.2741E-05  0  0.1313E-05  1 -0.2847E-05  0 -0.1263E-05
   (  2, 46, 27)  (  2, 46, 27)  (  2, 46, 27)  (  2, 46, 27)  (  2, 46, 27)
  1  0.2769E-05  0  0.1348E-05  1 -0.2862E-05  0 -0.1276E-05  1  0.2781E-05
   (  2, 46, 27)  (  2, 46, 27)  (  2, 46, 27)  (  2, 46, 27)  (  2, 46, 27)
  0  0.1358E-05  1 -0.2872E-05  0 -0.1281E-05  1  0.2782E-05  0  0.1362E-05
   (  2, 46, 27)  (  2, 46, 27)  (  2, 46, 27)  (  2, 46, 27)  (  2, 46, 27)
  1 -0.2873E-05  0 -0.1282E-05  1  0.2777E-05  0  0.1361E-05  1 -0.2868E-05
   (  2, 46, 27)  (  2, 46, 27)  (  2, 46, 27)  (  2, 46, 27)  (  2, 46, 27)
  0 -0.1278E-05  1  0.2784E-05  0  0.1362E-05  1 -0.2875E-05  0 -0.1283E-05
   (  2, 46, 27)  (  2, 46, 27)  (  2, 46, 27)  (  2, 46, 27)  (  2, 46, 27)
  1  0.2784E-05  0  0.1364E-05  1 -0.2875E-05  0 -0.1282E-05  1  0.2778E-05
   (  2, 46, 27)  (  2, 46, 27)  (  2, 46, 27)  (  2, 46, 27)  (  2, 46, 27)
  0  0.1362E-05  1 -0.2868E-05  0 -0.1278E-05  1  0.2778E-05  0  0.1360E-05
   (  2, 46, 27)  (  2, 46, 27)  (  2, 46, 27)  (  2, 46, 27)  (  2, 46, 27)
  1 -0.2869E-05  0 -0.1279E-05  1  0.2785E-05  0  0.1362E-05  1 -0.2875E-05
   (  2, 46, 27)  (  2, 46, 27)  (  2, 46, 27)  (  2, 46, 27)  (  2, 46, 27)
  0 -0.1283E-05  1  0.2785E-05  0  0.1364E-05  1 -0.2875E-05  0 -0.1282E-05
   (  2, 46, 27)  (  2, 46, 27)  (  2, 46, 27)  (  2, 46, 27)  (  2, 46, 27)
  1  0.2778E-05  0  0.1362E-05  1 -0.2869E-05  0 -0.1278E-05  1  0.2785E-05
   (  2, 46, 27)  (  2, 46, 27)  (  2, 46, 27)  (  2, 46, 27)  (  2, 46, 27)
  0  0.1362E-05  1 -0.2876E-05  0 -0.1283E-05  1  0.2785E-05  0  0.1364E-05
   (  2, 46, 27)  (  2, 46, 27)  (  2, 46, 27)  (  2, 46, 27)  (  2, 46, 27)
  1 -0.2875E-05  0 -0.1282E-05  1  0.2784E-05  0  0.1364E-05  1 -0.2875E-05
   (  2, 46, 27)  (  2, 46, 27)  (  2, 46, 27)  (  2, 46, 27)  (  2, 46, 27)
  0 -0.1282E-05  1  0.2784E-05  0  0.1364E-05  1 -0.2875E-05  0 -0.1282E-05
   (  2, 46, 27)  (  2, 46, 27)  (  2, 46, 27)  (  2, 46, 27)  (  2, 46, 27)
  1  0.2784E-05  0  0.1364E-05  1 -0.2875E-05  0 -0.1282E-05  1  0.2778E-05
   (  2, 46, 27)  (  2, 46, 27)  (  2, 46, 27)  (  2, 46, 27)  (  2, 46, 27)
  0  0.1362E-05  1 -0.2869E-05  0 -0.1278E-05  1  0.2778E-05  0  0.1360E-05
   (  2, 46, 27)  (  2, 46, 27)  (  2, 46, 27)  (  2, 46, 27)  (  2, 46, 27)
  1 -0.2869E-05  0 -0.1279E-05  1  0.2785E-05  0  0.1362E-05  1 -0.2875E-05
   (  2, 46, 27)  (  2, 46, 27)  (  2, 46, 27)  (  2, 46, 27)  (  2, 46, 27)
  0 -0.1283E-05  1  0.2778E-05  0  0.1362E-05  1 -0.2868E-05  0 -0.1278E-05
   (  2, 46, 27)  (  2, 46, 27)  (  2, 46, 27)  (  2, 46, 27)  (  2, 46, 27)
  1  0.2785E-05  0  0.1362E-05  1 -0.2876E-05  0 -0.1283E-05  1  0.2785E-05
   (  2, 46, 27)  (  2, 46, 27)  (  2, 46, 27)  (  2, 46, 27)  (  2, 46, 27)
  0  0.1364E-05  1 -0.2875E-05  0 -0.1282E-05  1  0.2778E-05  0  0.1362E-05
   (  2, 46, 27)  (  2, 46, 27)  (  2, 46, 27)  (  2, 46, 27)  (  2, 46, 27)
  1 -0.2869E-05  0 -0.1278E-05  1  0.2785E-05  0  0.1362E-05  1 -0.2876E-05
   (  2, 46, 27)  (  2, 46, 27)  (  2, 46, 27)  (  2, 46, 27)  (  2, 46, 27)
  0 -0.1283E-05  1  0.2778E-05  0  0.1362E-05  1 -0.2868E-05  0 -0.1278E-05
   (  2, 46, 27)  (  2, 46, 27)  (  2, 46, 27)  (  2, 46, 27)  (  2, 46, 27)
  1  0.2785E-05  0  0.1362E-05  1 -0.2876E-05  0 -0.1283E-05  1  0.2785E-05
   (  2, 46, 27)  (  2, 46, 27)  (  2, 46, 27)  (  2, 46, 27)  (  2, 46, 27)
  0  0.1364E-05  1 -0.2875E-05  0 -0.1282E-05  1  0.2784E-05  0  0.1364E-05
   (  2, 46, 27)  (  2, 46, 27)  (  2, 46, 27)  (  2, 46, 27)  (  2, 46, 27)
  1 -0.2875E-05  0 -0.1282E-05  1  0.2778E-05  0  0.1362E-05  1 -0.2869E-05
   (  2, 46, 27)  (  2, 46, 27)  (  2, 46, 27)  (  2, 46, 27)  (  2, 46, 27)
  0 -0.1278E-05  1  0.2785E-05  0  0.1362E-05  1 -0.2876E-05  0 -0.1283E-05
   (  2, 46, 27)  (  2, 46, 27)  (  2, 46, 27)  (  2, 46, 27)  (  2, 46, 27)
  1  0.2778E-05  0  0.1362E-05  1 -0.2868E-05  0 -0.1278E-05  1  0.2785E-05
   (  2, 46, 27)  (  2, 46, 27)  (  2, 46, 27)  (  2, 46, 27)  (  2, 46, 27)
  0  0.1362E-05  1 -0.2876E-05  0 -0.1283E-05  1  0.2778E-05  0  0.1362E-05
   (  2, 46, 27)  (  2, 46, 27)  (  2, 46, 27)  (  2, 46, 27)  (  2, 46, 27)
  1 -0.2868E-05  0 -0.1278E-05  1  0.2785E-05  0  0.1362E-05  1 -0.2876E-05
   (  2, 46, 27)  (  2, 46, 27)  (  2, 46, 27)  (  2, 46, 27)  (  2, 46, 27)
  0 -0.1283E-05  1  0.2785E-05  0  0.1364E-05  1 -0.2875E-05  0 -0.1282E-05
   (  2, 46, 27)  (  2, 46, 27)  (  2, 46, 27)  (  2, 46, 27)  (  2, 46, 27)
  1  0.2784E-05  0  0.1364E-05  1 -0.2875E-05  0 -0.1282E-05  1  0.2778E-05
   (  2, 46, 27)  (  2, 46, 27)  (  2, 46, 27)  (  2, 46, 27)  (  2, 46, 27)
  0  0.1362E-05  1 -0.2869E-05  0 -0.1278E-05  1  0.2785E-05  0  0.1362E-05
   (  2, 46, 27)  (  2, 46, 27)  (  2, 46, 27)  (  2, 46, 27)  (  2, 46, 27)
  1 -0.2876E-05  0 -0.1283E-05  1  0.2778E-05  0  0.1362E-05  1 -0.2868E-05
   (  2, 46, 27)  (  2, 46, 27)  (  2, 46, 27)  (  2, 46, 27)  (  2, 46, 27)
  0 -0.1278E-05  1  0.2785E-05  0  0.1362E-05  1 -0.2876E-05  0 -0.1283E-05
   (  2, 46, 27)  (  2, 46, 27)  (  2, 46, 27)  (  2, 46, 27)  (  2, 46, 27)
  1  0.2785E-05  0  0.1364E-05  1 -0.2875E-05  0 -0.1282E-05  1  0.2784E-05
   (  2, 46, 27)  (  2, 46, 27)  (  2, 46, 27)  (  2, 46, 27)  (  2, 46, 27)
  0  0.1364E-05  1 -0.2875E-05  0 -0.1282E-05  1  0.2784E-05  0  0.1364E-05
   (  2, 46, 27)  (  2, 46, 27)  (  2, 46, 27)  (  2, 46, 27)  (  2, 46, 27)
  1 -0.2875E-05  0 -0.1282E-05  1  0.2784E-05  0  0.1364E-05  1 -0.2875E-05
   (  2, 46, 27)  (  2, 46, 27)  (  2, 46, 27)  (  2, 46, 27)  (  2, 46, 27)
  0 -0.1282E-05  1  0.2784E-05  0  0.1364E-05  1 -0.2875E-05  0 -0.1282E-05
   (  2, 46, 27)  (  2, 46, 27)  (  2, 46, 27)  (  2, 46, 27)  (  2, 46, 27)
  1  0.2784E-05  0  0.1364E-05  1 -0.2875E-05  0 -0.1282E-05  1  0.2778E-05
   (  2, 46, 27)  (  2, 46, 27)  (  2, 46, 27)  (  2, 46, 27)  (  2, 46, 27)
  0  0.1362E-05
   (  2, 46, 27)



 OUTPUT CONTROL FOR STRESS PERIOD    2   TIME STEP   36
    SAVE HEAD FOR ALL LAYERS
    SAVE DRAWDOWN FOR ALL LAYERS
    SAVE BUDGET
    PRINT BUDGET
 UBDSV1 SAVING "         STORAGE" ON UNIT   9 AT TIME STEP 36, STRESS PERIOD   2
 UBDSV2 SAVING "   CONSTANT HEAD" ON UNIT   9 AT TIME STEP 36, STRESS PERIOD   2
 UBDSV1 SAVING "FLOW RIGHT FACE " ON UNIT   9 AT TIME STEP 36, STRESS PERIOD   2
 UBDSV1 SAVING "FLOW FRONT FACE " ON UNIT   9 AT TIME STEP 36, STRESS PERIOD   2
 UBDSV1 SAVING "FLOW LOWER FACE " ON UNIT   9 AT TIME STEP 36, STRESS PERIOD   2
 UBDSV4 SAVING "           WELLS" ON UNIT   9 AT TIME STEP 36, STRESS PERIOD   2
 UBDSV4 SAVING "   RIVER LEAKAGE" ON UNIT   9 AT TIME STEP 36, STRESS PERIOD   2
 UBDSV3 SAVING "              ET" ON UNIT   9 AT TIME STEP 36, STRESS PERIOD   2
 UBDSV4 SAVING " HEAD DEP BOUNDS" ON UNIT   9 AT TIME STEP 36, STRESS PERIOD   2
 UBDSV3 SAVING "        RECHARGE" ON UNIT   9 AT TIME STEP 36, STRESS PERIOD   2
 SOLVING FOR ZETA FOR LAYER     1 ZONE     2
     2 CALLS TO PCG ROUTINE FOR TIME STEP  36 IN STRESS PERIOD    2
     4 TOTAL ITERATIONS

 MAXIMUM HEAD CHANGE FOR EACH ITERATION (1 INDICATES THE FIRST INNER ITERATION):

    HEAD CHANGE    HEAD CHANGE    HEAD CHANGE    HEAD CHANGE    HEAD CHANGE 
   LAYER,ROW,COL  LAYER,ROW,COL  LAYER,ROW,COL  LAYER,ROW,COL  LAYER,ROW,COL
 ---------------------------------------------------------------------------
  1   19.35      0  0.5192E-01  0  0.7137E-03  1  0.1148E-04
   (  1, 20,  8)  (  1, 21,  7)  (  1, 12,  2)  (  1, 11,  3)

 MAXIMUM RESIDUAL FOR EACH ITERATION (1 INDICATES THE FIRST INNER ITERATION):

    RESIDUAL       RESIDUAL       RESIDUAL       RESIDUAL       RESIDUAL    
   LAYER,ROW,COL  LAYER,ROW,COL  LAYER,ROW,COL  LAYER,ROW,COL  LAYER,ROW,COL
 ---------------------------------------------------------------------------
  1 -0.1540E-04  0 -0.2637E-06  0 -0.4244E-08  1 -0.6794E-10
   (  1, 21,  7)  (  1, 12,  2)  (  1, 11,  3)  (  1, 12,  2)


 SOLVING FOR ZETA FOR LAYER     2 ZONE     2
     2 CALLS TO PCG ROUTINE FOR TIME STEP  36 IN STRESS PERIOD    2
     5 TOTAL ITERATIONS

 MAXIMUM HEAD CHANGE FOR EACH ITERATION (1 INDICATES THE FIRST INNER ITERATION):

    HEAD CHANGE    HEAD CHANGE    HEAD CHANGE    HEAD CHANGE    HEAD CHANGE 
   LAYER,ROW,COL  LAYER,ROW,COL  LAYER,ROW,COL  LAYER,ROW,COL  LAYER,ROW,COL
 ---------------------------------------------------------------------------
  1   4.295      0  0.5738E-01  0  0.1401E-02  0  0.1457E-04  1 -0.2762E-06
   (  1, 12,  8)  (  1, 12,  6)  (  1, 13,  5)  (  1, 12,  6)  (  1, 12,  8)

 MAXIMUM RESIDUAL FOR EACH ITERATION (1 INDICATES THE FIRST INNER ITERATION):

    RESIDUAL       RESIDUAL       RESIDUAL       RESIDUAL       RESIDUAL    
   LAYER,ROW,COL  LAYER,ROW,COL  LAYER,ROW,COL  LAYER,ROW,COL  LAYER,ROW,COL
 ---------------------------------------------------------------------------
  1 -0.2145E-04  0 -0.4823E-06  0 -0.5847E-08  0 -0.8057E-10  1 -0.1250E-11
   (  1, 12,  6)  (  1, 13,  5)  (  1, 12,  6)  (  1, 11,  7)  (  1, 12,  6)


 UBUDSV SAVING "      ZETASRF  1" ON UNIT170 AT TIME STEP 36, STRESS PERIOD    2


                      VOLUMETRIC SWI ZONE BUDGET FOR ENTIRE MODEL
                     AT END OF TIME STEP   36 IN STRESS PERIOD   2
                                      ZONE     1
  -----------------------------------------------------------------------------------

        CUMULATIVE VOLUMES      L**3       RATES FOR THIS TIME STEP      L**3/T
        ------------------                 ------------------------

              IN:                                      IN:
              ---                                      ---
             BOUNDARIES =   636598272.0000            BOUNDARIES =           0.2362
          CONSTANT HEAD =           0.0000         CONSTANT HEAD =           0.0000
            ZONE CHANGE =   153477584.0000           ZONE CHANGE =       7.8637E-02
       ZONE CHG TIP/TOE =     6568844.5000      ZONE CHG TIP/TOE =       7.0581E-03
            ZONE MIXING =           0.0000           ZONE MIXING =           0.0000

               TOTAL IN =   796644736.0000              TOTAL IN =           0.3219

             OUT:                                     OUT:
             ----                                     ----
             BOUNDARIES =   687400384.0000            BOUNDARIES =           0.3155
          CONSTANT HEAD =           0.0000         CONSTANT HEAD =           0.0000
            ZONE CHANGE =    26444728.0000           ZONE CHANGE =       1.0316E-02
       ZONE CHG TIP/TOE =     5649544.5000      ZONE CHG TIP/TOE =       3.6093E-03
            ZONE MIXING =      546934.6250           ZONE MIXING =           0.0000

              TOTAL OUT =   720041600.0000             TOTAL OUT =           0.3295

               IN - OUT =    76603136.0000              IN - OUT =      -7.5872E-03

    PERCENT DISCREPANCY =          10.10     PERCENT DISCREPANCY =          -2.33



                      VOLUMETRIC SWI ZONE BUDGET FOR ENTIRE MODEL
                     AT END OF TIME STEP   36 IN STRESS PERIOD   2
                                      ZONE     2
  -----------------------------------------------------------------------------------

        CUMULATIVE VOLUMES      L**3       RATES FOR THIS TIME STEP      L**3/T
        ------------------                 ------------------------

              IN:                                      IN:
              ---                                      ---
             BOUNDARIES =    35767884.0000            BOUNDARIES =       9.8932E-02
          CONSTANT HEAD =           0.0000         CONSTANT HEAD =           0.0000
            ZONE CHANGE =    22959162.0000           ZONE CHANGE =       7.4379E-03
       ZONE CHG TIP/TOE =     9362652.0000      ZONE CHG TIP/TOE =       7.6166E-03
            ZONE MIXING =      546934.6250           ZONE MIXING =           0.0000

               TOTAL IN =    68636632.0000              TOTAL IN =           0.1140

             OUT:                                     OUT:
             ----                                     ----
             BOUNDARIES =    39488764.0000            BOUNDARIES =       7.7527E-02
          CONSTANT HEAD =           0.0000         CONSTANT HEAD =           0.0000
            ZONE CHANGE =    31199580.0000           ZONE CHANGE =       3.4754E-02
       ZONE CHG TIP/TOE =     3877182.7500      ZONE CHG TIP/TOE =       3.7476E-03
            ZONE MIXING =           0.0000           ZONE MIXING =           0.0000

              TOTAL OUT =    74565528.0000             TOTAL OUT =           0.1160

               IN - OUT =    -5928896.0000              IN - OUT =      -2.0415E-03

    PERCENT DISCREPANCY =          -8.28     PERCENT DISCREPANCY =          -1.78


         ****FAILED TO MEET SOLVER CONVERGENCE CRITERIA IN TIME STEP   36 OF STRESS PERIOD    2****

 HEAD WILL BE SAVED ON UNIT   37 AT END OF TIME STEP   36, STRESS PERIOD    2

 DRAWDOWN WILL BE SAVED ON UNIT   38 AT END OF TIME STEP   36, STRESS PERIOD    2
1
  VOLUMETRIC BUDGET FOR ENTIRE MODEL AT END OF TIME STEP   36, STRESS PERIOD   2
  ------------------------------------------------------------------------------

     CUMULATIVE VOLUMES      L**3       RATES FOR THIS TIME STEP      L**3/T
     ------------------                 ------------------------

           IN:                                      IN:
           ---                                      ---
             STORAGE =    54529516.0000               STORAGE =       5.7994E-02
       CONSTANT HEAD =           0.0000         CONSTANT HEAD =           0.0000
               WELLS =           0.0000                 WELLS =           0.0000
       RIVER LEAKAGE =   133998344.0000         RIVER LEAKAGE =       4.1000E-02
                  ET =           0.0000                    ET =           0.0000
     HEAD DEP BOUNDS =    43796496.0000       HEAD DEP BOUNDS =           0.1047
            RECHARGE =   531331360.0000              RECHARGE =           0.1878
          SWIADDTOCH =           0.0000            SWIADDTOCH =           0.0000

            TOTAL IN =   763655680.0000              TOTAL IN =           0.3915

          OUT:                                     OUT:
          ----                                     ----
             STORAGE =       19576.1758               STORAGE =       4.1924E-05
       CONSTANT HEAD =           0.0000         CONSTANT HEAD =           0.0000
               WELLS =   221193504.0000                 WELLS =           0.3840
       RIVER LEAKAGE =    21630804.0000         RIVER LEAKAGE =           0.0000
                  ET =   166413648.0000                    ET =           0.0000
     HEAD DEP BOUNDS =   354411008.0000       HEAD DEP BOUNDS =       7.4135E-03
            RECHARGE =           0.0000              RECHARGE =           0.0000
          SWIADDTOCH =           0.0000            SWIADDTOCH =           0.0000

           TOTAL OUT =   763668544.0000             TOTAL OUT =           0.3915

            IN - OUT =      -12864.0000              IN - OUT =       2.0862E-07

 PERCENT DISCREPANCY =          -0.00     PERCENT DISCREPANCY =           0.00






         TIME SUMMARY AT END OF TIME STEP   36 IN STRESS PERIOD    2
                    SECONDS     MINUTES      HOURS       DAYS        YEARS
                    -----------------------------------------------------------
   TIME STEP LENGTH 1.57680E+07 2.62800E+05  4380.0      182.50     0.49966    
 STRESS PERIOD TIME 5.67648E+08 9.46080E+06 1.57680E+05  6570.0      17.988    
         TOTAL TIME 3.72125E+09 6.20208E+07 1.03368E+06  43070.      117.92    
1
 FAILURE TO MEET SOLVER CONVERGENCE CRITERIA
 BUDGET PERCENT DISCREPANCY IS    0.0001
 CONTINUING EXECUTION
 
 SOLVING FOR HEAD 

 CELL CONVERSIONS FOR ITER.=  2  LAYER=  1  STEP= 37  PERIOD=   2   (ROW,COL)
    DRY( 21, 39)   DRY( 21, 41)   DRY( 37, 33)   DRY( 46, 27)   DRY( 47, 25)   

 CELL CONVERSIONS FOR ITER.=  3  LAYER=  1  STEP= 37  PERIOD=   2   (ROW,COL)
    DRY( 47, 23)   

 CELL CONVERSIONS FOR ITER.=  8  LAYER=  1  STEP= 37  PERIOD=   2   (ROW,COL)
    DRY( 35, 35)   
    25 CALLS TO PCG ROUTINE FOR TIME STEP  37 IN STRESS PERIOD    2
    59 TOTAL ITERATIONS

 MAXIMUM HEAD CHANGE FOR EACH ITERATION (1 INDICATES THE FIRST INNER ITERATION):

    HEAD CHANGE    HEAD CHANGE    HEAD CHANGE    HEAD CHANGE    HEAD CHANGE 
   LAYER,ROW,COL  LAYER,ROW,COL  LAYER,ROW,COL  LAYER,ROW,COL  LAYER,ROW,COL
 ---------------------------------------------------------------------------
  1 -0.2958      0  0.1037      0  0.3211E-01  0 -0.5827E-02  0 -0.1835E-02
   (  1, 16, 10)  (  2, 16, 11)  (  1, 20, 10)  (  2, 21, 11)  (  2,  5, 11)
  0  0.7898E-03  1 -0.7699E-01  0  0.1503E-01  0  0.2252E-02  0  0.5718E-03
   (  2,  5, 11)  (  2, 21, 39)  (  2, 37, 33)  (  2, 21, 41)  (  2, 48, 22)
  1 -0.7247E-01  0  0.1585E-01  0  0.1665E-02  0  0.3458E-03  1  0.8609E-02
   (  2, 47, 23)  (  2, 47, 23)  (  2, 47, 23)  (  2, 47, 23)  (  2, 54, 38)
  0  0.1875E-03  1 -0.7692E-02  0  0.1079E-03  1  0.6849E-02  0 -0.1293E-03
   (  2,  5, 11)  (  2, 54, 38)  (  2,  5, 11)  (  2, 54, 38)  (  1, 35, 35)
  1 -0.6116E-02  0  0.9407E-04  1 -0.4971E-01  0 -0.5891E-02  0 -0.1525E-02
   (  2, 54, 38)  (  2, 35, 35)  (  2, 35, 35)  (  2, 33, 36)  (  2, 34, 36)
  0 -0.3428E-03  1 -0.4377E-02  0 -0.3416E-03  1  0.3988E-02  0  0.8805E-04
   (  2, 34, 36)  (  2, 54, 38)  (  2, 54, 38)  (  2, 54, 38)  (  2, 54, 38)
  1  0.3551E-02  0  0.4310E-04  1 -0.3161E-02  0 -0.3216E-04  1  0.2822E-02
   (  2, 54, 37)  (  2, 52, 39)  (  2, 54, 37)  (  2, 52, 39)  (  2, 54, 37)
  0  0.3285E-04  1 -0.2515E-02  0 -0.2597E-04  1  0.2247E-02  0  0.2498E-04
   (  2, 52, 39)  (  2, 54, 37)  (  2, 52, 39)  (  2, 54, 37)  (  2, 52, 39)
  1  0.2033E-02  0 -0.2072E-04  1 -0.1869E-02  0  0.1923E-04  1  0.1718E-02
   (  2, 54, 36)  (  2, 52, 39)  (  2, 54, 36)  (  2, 52, 39)  (  2, 54, 36)
  0  0.1799E-04  1 -0.1579E-02  0 -0.1687E-04  1  0.1449E-02  0  0.1605E-04
   (  2, 54, 36)  (  2, 54, 36)  (  2, 54, 36)  (  2, 54, 36)  (  2, 54, 36)
  1 -0.1331E-02  0 -0.1506E-04  1  0.1223E-02  0  0.1429E-04  1 -0.1124E-02
   (  2, 54, 36)  (  2, 54, 36)  (  2, 54, 36)  (  2, 54, 36)  (  2, 54, 36)
  0 -0.1343E-04  1  0.1033E-02  0  0.1275E-04  1 -0.9495E-03
   (  2, 54, 36)  (  2, 54, 36)  (  2, 54, 36)  (  2, 54, 36)

 MAXIMUM RESIDUAL FOR EACH ITERATION (1 INDICATES THE FIRST INNER ITERATION):

    RESIDUAL       RESIDUAL       RESIDUAL       RESIDUAL       RESIDUAL    
   LAYER,ROW,COL  LAYER,ROW,COL  LAYER,ROW,COL  LAYER,ROW,COL  LAYER,ROW,COL
 ---------------------------------------------------------------------------
  1  0.7737E-03  0 -0.2526E-03  0 -0.7193E-04  0 -0.1329E-04  0 -0.4425E-05
   (  2, 19, 10)  (  1, 20, 10)  (  2, 19,  9)  (  2, 19,  9)  (  2, 18, 10)
  0  0.1420E-05  1  0.9366E-02  0  0.9183E-03  0 -0.1894E-03  0 -0.4563E-04
   (  2, 15,  9)  (  1, 47, 23)  (  1, 47, 23)  (  2, 47, 23)  (  2, 47, 23)
  1  0.3490E-03  0  0.2934E-04  0  0.6517E-05  0  0.2093E-05  1  0.3909E-05
   (  1, 35, 35)  (  1, 35, 35)  (  1, 35, 35)  (  1, 35, 35)  (  1, 35, 35)
  0  0.1121E-05  1  0.1365E-04  0  0.5043E-05  1  0.3204E-04  0  0.9974E-05
   (  1, 35, 35)  (  1, 35, 35)  (  1, 35, 35)  (  1, 35, 35)  (  1, 35, 35)
  1 -0.3984E-05  0 -0.1440E-05  1  0.2797E-04  0  0.9485E-05  0  0.2293E-05
   (  2, 35, 35)  (  2, 35, 35)  (  2, 34, 36)  (  2, 34, 36)  (  2, 34, 36)
  0  0.5432E-06  1 -0.4556E-06  0 -0.1629E-06  1 -0.1843E-06  0  0.6983E-07
   (  2, 37, 33)  (  2, 33, 35)  (  2, 34, 35)  (  2,  5, 11)  (  2, 52, 37)
  1 -0.1130E-06  0 -0.5515E-07  1  0.1017E-06  0  0.5710E-07  1 -0.9675E-07
   (  2, 52, 37)  (  2, 52, 37)  (  2, 52, 37)  (  2, 52, 37)  (  2, 52, 37)
  0 -0.4812E-07  1  0.8814E-07  0  0.4824E-07  1 -0.8323E-07  0 -0.4249E-07
   (  2, 52, 37)  (  2, 52, 37)  (  2, 52, 37)  (  2, 52, 37)  (  2, 52, 37)
  1  0.7643E-07  0  0.4120E-07  1 -0.7154E-07  0 -0.3704E-07  1  0.6591E-07
   (  2, 52, 37)  (  2, 52, 37)  (  2, 52, 37)  (  2, 52, 37)  (  2, 52, 37)
  0  0.3518E-07  1 -0.6136E-07  0 -0.3201E-07  1  0.5654E-07  0  0.3000E-07
   (  2, 52, 37)  (  2, 52, 37)  (  2, 52, 37)  (  2, 52, 37)  (  2, 52, 37)
  1 -0.5242E-07  0 -0.2744E-07  1  0.4837E-07  0  0.2558E-07  1 -0.4480E-07
   (  2, 52, 37)  (  2, 52, 37)  (  2, 52, 37)  (  2, 52, 37)  (  2, 52, 37)
  0 -0.2351E-07  1  0.4138E-07  0  0.2182E-07  1 -0.3828E-07
   (  2, 52, 37)  (  2, 52, 37)  (  2, 52, 37)  (  2, 52, 37)



 OUTPUT CONTROL FOR STRESS PERIOD    2   TIME STEP   37
    SAVE HEAD FOR ALL LAYERS
    SAVE DRAWDOWN FOR ALL LAYERS
    SAVE BUDGET
    PRINT BUDGET
 UBDSV1 SAVING "         STORAGE" ON UNIT   9 AT TIME STEP 37, STRESS PERIOD   2
 UBDSV2 SAVING "   CONSTANT HEAD" ON UNIT   9 AT TIME STEP 37, STRESS PERIOD   2
 UBDSV1 SAVING "FLOW RIGHT FACE " ON UNIT   9 AT TIME STEP 37, STRESS PERIOD   2
 UBDSV1 SAVING "FLOW FRONT FACE " ON UNIT   9 AT TIME STEP 37, STRESS PERIOD   2
 UBDSV1 SAVING "FLOW LOWER FACE " ON UNIT   9 AT TIME STEP 37, STRESS PERIOD   2
 UBDSV4 SAVING "           WELLS" ON UNIT   9 AT TIME STEP 37, STRESS PERIOD   2
 UBDSV4 SAVING "   RIVER LEAKAGE" ON UNIT   9 AT TIME STEP 37, STRESS PERIOD   2
 UBDSV3 SAVING "              ET" ON UNIT   9 AT TIME STEP 37, STRESS PERIOD   2
 UBDSV4 SAVING " HEAD DEP BOUNDS" ON UNIT   9 AT TIME STEP 37, STRESS PERIOD   2
 UBDSV3 SAVING "        RECHARGE" ON UNIT   9 AT TIME STEP 37, STRESS PERIOD   2
 SOLVING FOR ZETA FOR LAYER     1 ZONE     2
     2 CALLS TO PCG ROUTINE FOR TIME STEP  37 IN STRESS PERIOD    2
     4 TOTAL ITERATIONS

 MAXIMUM HEAD CHANGE FOR EACH ITERATION (1 INDICATES THE FIRST INNER ITERATION):

    HEAD CHANGE    HEAD CHANGE    HEAD CHANGE    HEAD CHANGE    HEAD CHANGE 
   LAYER,ROW,COL  LAYER,ROW,COL  LAYER,ROW,COL  LAYER,ROW,COL  LAYER,ROW,COL
 ---------------------------------------------------------------------------
  1  -10.58      0  0.3608E-01  0  0.5691E-03  1  0.7028E-05
   (  1, 21,  8)  (  1, 11,  3)  (  1, 12,  2)  (  1, 11,  3)

 MAXIMUM RESIDUAL FOR EACH ITERATION (1 INDICATES THE FIRST INNER ITERATION):

    RESIDUAL       RESIDUAL       RESIDUAL       RESIDUAL       RESIDUAL    
   LAYER,ROW,COL  LAYER,ROW,COL  LAYER,ROW,COL  LAYER,ROW,COL  LAYER,ROW,COL
 ---------------------------------------------------------------------------
  1 -0.1283E-04  0 -0.1970E-06  0 -0.2714E-08  1 -0.4114E-10
   (  1, 11,  3)  (  1, 12,  2)  (  1, 11,  3)  (  1, 12,  2)


 SOLVING FOR ZETA FOR LAYER     2 ZONE     2
     2 CALLS TO PCG ROUTINE FOR TIME STEP  37 IN STRESS PERIOD    2
     5 TOTAL ITERATIONS

 MAXIMUM HEAD CHANGE FOR EACH ITERATION (1 INDICATES THE FIRST INNER ITERATION):

    HEAD CHANGE    HEAD CHANGE    HEAD CHANGE    HEAD CHANGE    HEAD CHANGE 
   LAYER,ROW,COL  LAYER,ROW,COL  LAYER,ROW,COL  LAYER,ROW,COL  LAYER,ROW,COL
 ---------------------------------------------------------------------------
  1   10.43      0  0.1031      0  0.1297E-02  0  0.2662E-04  1 -0.3648E-06
   (  1, 21,  9)  (  1, 20, 10)  (  1, 13,  5)  (  1, 12,  6)  (  1, 19, 11)

 MAXIMUM RESIDUAL FOR EACH ITERATION (1 INDICATES THE FIRST INNER ITERATION):

    RESIDUAL       RESIDUAL       RESIDUAL       RESIDUAL       RESIDUAL    
   LAYER,ROW,COL  LAYER,ROW,COL  LAYER,ROW,COL  LAYER,ROW,COL  LAYER,ROW,COL
 ---------------------------------------------------------------------------
  1 -0.3241E-04  0 -0.4466E-06  0 -0.1049E-07  0 -0.1206E-09  1 -0.4129E-11
   (  1, 20, 10)  (  1, 13,  5)  (  1, 12,  6)  (  1, 11,  7)  (  1, 12,  6)


 UBUDSV SAVING "      ZETASRF  1" ON UNIT170 AT TIME STEP 37, STRESS PERIOD    2


                      VOLUMETRIC SWI ZONE BUDGET FOR ENTIRE MODEL
                     AT END OF TIME STEP   37 IN STRESS PERIOD   2
                                      ZONE     1
  -----------------------------------------------------------------------------------

        CUMULATIVE VOLUMES      L**3       RATES FOR THIS TIME STEP      L**3/T
        ------------------                 ------------------------

              IN:                                      IN:
              ---                                      ---
             BOUNDARIES =   639947392.0000            BOUNDARIES =           0.2124
          CONSTANT HEAD =           0.0000         CONSTANT HEAD =           0.0000
            ZONE CHANGE =   154781104.0000           ZONE CHANGE =       8.2669E-02
       ZONE CHG TIP/TOE =     6695325.5000      ZONE CHG TIP/TOE =       8.0214E-03
            ZONE MIXING =           0.0000           ZONE MIXING =           0.0000

               TOTAL IN =   801423808.0000              TOTAL IN =           0.3031

             OUT:                                     OUT:
             ----                                     ----
             BOUNDARIES =   692015744.0000            BOUNDARIES =           0.2927
          CONSTANT HEAD =           0.0000         CONSTANT HEAD =           0.0000
            ZONE CHANGE =    26570898.0000           ZONE CHANGE =       8.0016E-03
       ZONE CHG TIP/TOE =     5742698.5000      ZONE CHG TIP/TOE =       5.9078E-03
            ZONE MIXING =      583669.5000           ZONE MIXING =       2.3297E-03

              TOTAL OUT =   724913024.0000             TOTAL OUT =           0.3089

               IN - OUT =    76510784.0000              IN - OUT =      -5.8518E-03

    PERCENT DISCREPANCY =          10.03     PERCENT DISCREPANCY =          -1.91



                      VOLUMETRIC SWI ZONE BUDGET FOR ENTIRE MODEL
                     AT END OF TIME STEP   37 IN STRESS PERIOD   2
                                      ZONE     2
  -----------------------------------------------------------------------------------

        CUMULATIVE VOLUMES      L**3       RATES FOR THIS TIME STEP      L**3/T
        ------------------                 ------------------------

              IN:                                      IN:
              ---                                      ---
             BOUNDARIES =    37336312.0000            BOUNDARIES =       9.9469E-02
          CONSTANT HEAD =           0.0000         CONSTANT HEAD =           0.0000
            ZONE CHANGE =    23039222.0000           ZONE CHANGE =       5.0773E-03
       ZONE CHG TIP/TOE =     9526917.0000      ZONE CHG TIP/TOE =       1.0418E-02
            ZONE MIXING =      583669.5000           ZONE MIXING =       2.3297E-03

               TOTAL IN =    70486120.0000              TOTAL IN =           0.1173

             OUT:                                     OUT:
             ----                                     ----
             BOUNDARIES =    40711204.0000            BOUNDARIES =       7.7527E-02
          CONSTANT HEAD =           0.0000         CONSTANT HEAD =           0.0000
            ZONE CHANGE =    31806456.0000           ZONE CHANGE =       3.8488E-02
       ZONE CHG TIP/TOE =     3957986.5000      ZONE CHG TIP/TOE =       5.1245E-03
            ZONE MIXING =           0.0000           ZONE MIXING =           0.0000

              TOTAL OUT =    76475648.0000             TOTAL OUT =           0.1211

               IN - OUT =    -5989528.0000              IN - OUT =      -3.8453E-03

    PERCENT DISCREPANCY =          -8.15     PERCENT DISCREPANCY =          -3.23


 HEAD WILL BE SAVED ON UNIT   37 AT END OF TIME STEP   37, STRESS PERIOD    2

 DRAWDOWN WILL BE SAVED ON UNIT   38 AT END OF TIME STEP   37, STRESS PERIOD    2
1
  VOLUMETRIC BUDGET FOR ENTIRE MODEL AT END OF TIME STEP   37, STRESS PERIOD   2
  ------------------------------------------------------------------------------

     CUMULATIVE VOLUMES      L**3       RATES FOR THIS TIME STEP      L**3/T
     ------------------                 ------------------------

           IN:                                      IN:
           ---                                      ---
             STORAGE =    55453476.0000               STORAGE =       5.8597E-02
       CONSTANT HEAD =           0.0000         CONSTANT HEAD =           0.0000
               WELLS =           0.0000                 WELLS =           0.0000
       RIVER LEAKAGE =   134644832.0000         RIVER LEAKAGE =       4.1000E-02
                  ET =           0.0000                    ET =           0.0000
     HEAD DEP BOUNDS =    45457552.0000       HEAD DEP BOUNDS =           0.1053
            RECHARGE =   534271360.0000              RECHARGE =           0.1865
          SWIADDTOCH =           0.0000            SWIADDTOCH =           0.0000

            TOTAL IN =   769827200.0000              TOTAL IN =           0.3914

          OUT:                                     OUT:
          ----                                     ----
             STORAGE =       23303.4473               STORAGE =       2.3638E-04
       CONSTANT HEAD =           0.0000         CONSTANT HEAD =           0.0000
               WELLS =   227248416.0000                 WELLS =           0.3840
       RIVER LEAKAGE =    21630804.0000         RIVER LEAKAGE =           0.0000
                  ET =   166413648.0000                    ET =           0.0000
     HEAD DEP BOUNDS =   354523872.0000       HEAD DEP BOUNDS =       7.1578E-03
            RECHARGE =           0.0000              RECHARGE =           0.0000
          SWIADDTOCH =           0.0000            SWIADDTOCH =           0.0000

           TOTAL OUT =   769840000.0000             TOTAL OUT =           0.3914

            IN - OUT =      -12800.0000              IN - OUT =      -8.9407E-08

 PERCENT DISCREPANCY =          -0.00     PERCENT DISCREPANCY =          -0.00






         TIME SUMMARY AT END OF TIME STEP   37 IN STRESS PERIOD    2
                    SECONDS     MINUTES      HOURS       DAYS        YEARS
                    -----------------------------------------------------------
   TIME STEP LENGTH 1.57680E+07 2.62800E+05  4380.0      182.50     0.49966    
 STRESS PERIOD TIME 5.83416E+08 9.72360E+06 1.62060E+05  6752.5      18.487    
         TOTAL TIME 3.73702E+09 6.22836E+07 1.03806E+06  43253.      118.42    
1
 
 SOLVING FOR HEAD 

 CELL CONVERSIONS FOR ITER.=  2  LAYER=  1  STEP= 38  PERIOD=   2   (ROW,COL)
    DRY(  5, 25)   DRY( 23, 43)   DRY( 44, 29)   

 CELL CONVERSIONS FOR ITER.=  2  LAYER=  2  STEP= 38  PERIOD=   2   (ROW,COL)
    DRY( 54, 36)   DRY( 54, 38)   

 CELL CONVERSIONS FOR ITER.=  3  LAYER=  1  STEP= 38  PERIOD=   2   (ROW,COL)
    DRY( 41, 31)   
     8 CALLS TO PCG ROUTINE FOR TIME STEP  38 IN STRESS PERIOD    2
    23 TOTAL ITERATIONS

 MAXIMUM HEAD CHANGE FOR EACH ITERATION (1 INDICATES THE FIRST INNER ITERATION):

    HEAD CHANGE    HEAD CHANGE    HEAD CHANGE    HEAD CHANGE    HEAD CHANGE 
   LAYER,ROW,COL  LAYER,ROW,COL  LAYER,ROW,COL  LAYER,ROW,COL  LAYER,ROW,COL
 ---------------------------------------------------------------------------
  1 -0.4440      0  0.9852E-01  0 -0.2377E-01  0 -0.5796E-02  0 -0.1243E-02
   (  1, 15,  7)  (  2, 15,  7)  (  2, 20,  8)  (  2, 14,  7)  (  2,  6,  8)
  0  0.4066E-03  1 -0.9078E-01  0  0.1510E-01  0  0.3452E-02  0  0.8781E-03
   (  2,  6,  8)  (  2, 23, 43)  (  2,  5, 25)  (  2, 23, 43)  (  2, 23, 43)
  1 -0.4433E-01  0 -0.4980E-02  0 -0.1276E-02  0 -0.2523E-03  1  0.9791E-02
   (  2, 41, 31)  (  2, 54, 34)  (  2, 54, 34)  (  2, 54, 34)  (  2, 54, 34)
  0  0.5947E-03  1 -0.5104E-02  0 -0.2893E-03  1  0.2588E-02  0  0.1657E-03
   (  2, 54, 34)  (  2, 54, 34)  (  2, 54, 34)  (  2, 54, 34)  (  2, 54, 34)
  1 -0.1299E-02  0 -0.9284E-04  1  0.6485E-03
   (  2, 54, 34)  (  2, 54, 34)  (  2, 54, 34)

 MAXIMUM RESIDUAL FOR EACH ITERATION (1 INDICATES THE FIRST INNER ITERATION):

    RESIDUAL       RESIDUAL       RESIDUAL       RESIDUAL       RESIDUAL    
   LAYER,ROW,COL  LAYER,ROW,COL  LAYER,ROW,COL  LAYER,ROW,COL  LAYER,ROW,COL
 ---------------------------------------------------------------------------
  1 -0.9696E-03  0 -0.2357E-03  0 -0.6616E-04  0 -0.1664E-04  0  0.4699E-05
   (  2, 15,  7)  (  1, 15,  7)  (  1, 15,  7)  (  2, 16,  6)  (  2, 15,  7)
  0  0.1709E-05  1  0.1070E-02  0  0.1215E-03  0  0.2372E-04  0  0.5139E-05
   (  2, 15,  7)  (  1, 41, 31)  (  1, 41, 31)  (  1, 41, 31)  (  1, 41, 31)
  1  0.2724E-04  0  0.9624E-05  0  0.1612E-05  0  0.5167E-06  1  0.7524E-06
   (  2, 41, 31)  (  2, 42, 30)  (  2, 40, 32)  (  2, 43, 29)  (  2, 43, 30)
  0 -0.3470E-06  1 -0.2580E-06  0 -0.1434E-06  1  0.1496E-06  0  0.8463E-07
   (  2, 42, 31)  (  2, 52, 35)  (  2, 52, 35)  (  2, 52, 35)  (  2, 52, 35)
  1 -0.8019E-07  0 -0.4633E-07  1  0.4156E-07
   (  2, 52, 35)  (  2, 52, 35)  (  2, 52, 35)



 OUTPUT CONTROL FOR STRESS PERIOD    2   TIME STEP   38
    SAVE HEAD FOR ALL LAYERS
    SAVE DRAWDOWN FOR ALL LAYERS
    SAVE BUDGET
    PRINT BUDGET
 UBDSV1 SAVING "         STORAGE" ON UNIT   9 AT TIME STEP 38, STRESS PERIOD   2
 UBDSV2 SAVING "   CONSTANT HEAD" ON UNIT   9 AT TIME STEP 38, STRESS PERIOD   2
 UBDSV1 SAVING "FLOW RIGHT FACE " ON UNIT   9 AT TIME STEP 38, STRESS PERIOD   2
 UBDSV1 SAVING "FLOW FRONT FACE " ON UNIT   9 AT TIME STEP 38, STRESS PERIOD   2
 UBDSV1 SAVING "FLOW LOWER FACE " ON UNIT   9 AT TIME STEP 38, STRESS PERIOD   2
 UBDSV4 SAVING "           WELLS" ON UNIT   9 AT TIME STEP 38, STRESS PERIOD   2
 UBDSV4 SAVING "   RIVER LEAKAGE" ON UNIT   9 AT TIME STEP 38, STRESS PERIOD   2
 UBDSV3 SAVING "              ET" ON UNIT   9 AT TIME STEP 38, STRESS PERIOD   2
 UBDSV4 SAVING " HEAD DEP BOUNDS" ON UNIT   9 AT TIME STEP 38, STRESS PERIOD   2
 UBDSV3 SAVING "        RECHARGE" ON UNIT   9 AT TIME STEP 38, STRESS PERIOD   2
 SOLVING FOR ZETA FOR LAYER     1 ZONE     2
     2 CALLS TO PCG ROUTINE FOR TIME STEP  38 IN STRESS PERIOD    2
     4 TOTAL ITERATIONS

 MAXIMUM HEAD CHANGE FOR EACH ITERATION (1 INDICATES THE FIRST INNER ITERATION):

    HEAD CHANGE    HEAD CHANGE    HEAD CHANGE    HEAD CHANGE    HEAD CHANGE 
   LAYER,ROW,COL  LAYER,ROW,COL  LAYER,ROW,COL  LAYER,ROW,COL  LAYER,ROW,COL
 ---------------------------------------------------------------------------
  1   27.96      0  0.1030      0  0.8770E-03  1  0.9107E-05
   (  1, 18, 10)  (  1, 16, 10)  (  1, 17,  9)  (  1, 11,  3)

 MAXIMUM RESIDUAL FOR EACH ITERATION (1 INDICATES THE FIRST INNER ITERATION):

    RESIDUAL       RESIDUAL       RESIDUAL       RESIDUAL       RESIDUAL    
   LAYER,ROW,COL  LAYER,ROW,COL  LAYER,ROW,COL  LAYER,ROW,COL  LAYER,ROW,COL
 ---------------------------------------------------------------------------
  1 -0.3168E-04  0 -0.2973E-06  0 -0.3315E-08  1 -0.5480E-10
   (  1, 17,  8)  (  1, 17,  9)  (  1, 11,  3)  (  1, 12,  2)


 SOLVING FOR ZETA FOR LAYER     2 ZONE     2
     2 CALLS TO PCG ROUTINE FOR TIME STEP  38 IN STRESS PERIOD    2
     4 TOTAL ITERATIONS

 MAXIMUM HEAD CHANGE FOR EACH ITERATION (1 INDICATES THE FIRST INNER ITERATION):

    HEAD CHANGE    HEAD CHANGE    HEAD CHANGE    HEAD CHANGE    HEAD CHANGE 
   LAYER,ROW,COL  LAYER,ROW,COL  LAYER,ROW,COL  LAYER,ROW,COL  LAYER,ROW,COL
 ---------------------------------------------------------------------------
  1   4.986      0  0.5051E-01  0  0.4764E-03  1  0.6658E-05
   (  1, 22,  9)  (  1, 13,  7)  (  1, 25,  6)  (  1, 26,  5)

 MAXIMUM RESIDUAL FOR EACH ITERATION (1 INDICATES THE FIRST INNER ITERATION):

    RESIDUAL       RESIDUAL       RESIDUAL       RESIDUAL       RESIDUAL    
   LAYER,ROW,COL  LAYER,ROW,COL  LAYER,ROW,COL  LAYER,ROW,COL  LAYER,ROW,COL
 ---------------------------------------------------------------------------
  1 -0.1534E-04  0 -0.1854E-06  0 -0.2768E-08  1 -0.7714E-10
   (  1, 13,  7)  (  1, 25,  6)  (  1, 12,  6)  (  1, 25,  6)


 UBUDSV SAVING "      ZETASRF  1" ON UNIT170 AT TIME STEP 38, STRESS PERIOD    2


                      VOLUMETRIC SWI ZONE BUDGET FOR ENTIRE MODEL
                     AT END OF TIME STEP   38 IN STRESS PERIOD   2
                                      ZONE     1
  -----------------------------------------------------------------------------------

        CUMULATIVE VOLUMES      L**3       RATES FOR THIS TIME STEP      L**3/T
        ------------------                 ------------------------

              IN:                                      IN:
              ---                                      ---
             BOUNDARIES =   643286592.0000            BOUNDARIES =           0.2118
          CONSTANT HEAD =           0.0000         CONSTANT HEAD =           0.0000
            ZONE CHANGE =   156181136.0000           ZONE CHANGE =       8.8790E-02
       ZONE CHG TIP/TOE =     6861257.0000      ZONE CHG TIP/TOE =       1.0523E-02
            ZONE MIXING =           0.0000           ZONE MIXING =           0.0000

               TOTAL IN =   806328960.0000              TOTAL IN =           0.3111

             OUT:                                     OUT:
             ----                                     ----
             BOUNDARIES =   697309632.0000            BOUNDARIES =           0.3357
          CONSTANT HEAD =           0.0000         CONSTANT HEAD =           0.0000
            ZONE CHANGE =    26694230.0000           ZONE CHANGE =       7.8217E-03
       ZONE CHG TIP/TOE =     5840182.0000      ZONE CHG TIP/TOE =       6.1823E-03
            ZONE MIXING =      583669.5000           ZONE MIXING =           0.0000

              TOTAL OUT =   730427712.0000             TOTAL OUT =           0.3497

               IN - OUT =    75901248.0000              IN - OUT =      -3.8655E-02

    PERCENT DISCREPANCY =           9.88     PERCENT DISCREPANCY =         -11.70



                      VOLUMETRIC SWI ZONE BUDGET FOR ENTIRE MODEL
                     AT END OF TIME STEP   38 IN STRESS PERIOD   2
                                      ZONE     2
  -----------------------------------------------------------------------------------

        CUMULATIVE VOLUMES      L**3       RATES FOR THIS TIME STEP      L**3/T
        ------------------                 ------------------------

              IN:                                      IN:
              ---                                      ---
             BOUNDARIES =    38915984.0000            BOUNDARIES =           0.1002
          CONSTANT HEAD =           0.0000         CONSTANT HEAD =           0.0000
            ZONE CHANGE =    23117344.0000           ZONE CHANGE =       4.9545E-03
       ZONE CHG TIP/TOE =    10280628.0000      ZONE CHG TIP/TOE =       4.7800E-02
            ZONE MIXING =      583669.5000           ZONE MIXING =           0.0000

               TOTAL IN =    72897624.0000              TOTAL IN =           0.1529

             OUT:                                     OUT:
             ----                                     ----
             BOUNDARIES =    41251084.0000            BOUNDARIES =       3.4239E-02
          CONSTANT HEAD =           0.0000         CONSTANT HEAD =           0.0000
            ZONE CHANGE =    33101936.0000           ZONE CHANGE =       8.2159E-02
       ZONE CHG TIP/TOE =     4076638.0000      ZONE CHG TIP/TOE =       7.5248E-03
            ZONE MIXING =           0.0000           ZONE MIXING =           0.0000

              TOTAL OUT =    78429664.0000             TOTAL OUT =           0.1239

               IN - OUT =    -5532040.0000              IN - OUT =       2.9014E-02

    PERCENT DISCREPANCY =          -7.31     PERCENT DISCREPANCY =          20.96


 HEAD WILL BE SAVED ON UNIT   37 AT END OF TIME STEP   38, STRESS PERIOD    2

 DRAWDOWN WILL BE SAVED ON UNIT   38 AT END OF TIME STEP   38, STRESS PERIOD    2
1
  VOLUMETRIC BUDGET FOR ENTIRE MODEL AT END OF TIME STEP   38, STRESS PERIOD   2
  ------------------------------------------------------------------------------

     CUMULATIVE VOLUMES      L**3       RATES FOR THIS TIME STEP      L**3/T
     ------------------                 ------------------------

           IN:                                      IN:
           ---                                      ---
             STORAGE =    56369684.0000               STORAGE =       5.8105E-02
       CONSTANT HEAD =           0.0000         CONSTANT HEAD =           0.0000
               WELLS =           0.0000                 WELLS =           0.0000
       RIVER LEAKAGE =   135291328.0000         RIVER LEAKAGE =       4.1000E-02
                  ET =           0.0000                    ET =           0.0000
     HEAD DEP BOUNDS =    47131956.0000       HEAD DEP BOUNDS =           0.1062
            RECHARGE =   537199360.0000              RECHARGE =           0.1857
          SWIADDTOCH =           0.0000            SWIADDTOCH =           0.0000

            TOTAL IN =   775992320.0000              TOTAL IN =           0.3910

          OUT:                                     OUT:
          ----                                     ----
             STORAGE =       24636.3457               STORAGE =       8.4532E-05
       CONSTANT HEAD =           0.0000         CONSTANT HEAD =           0.0000
               WELLS =   233303328.0000                 WELLS =           0.3840
       RIVER LEAKAGE =    21630804.0000         RIVER LEAKAGE =           0.0000
                  ET =   166413648.0000                    ET =           0.0000
     HEAD DEP BOUNDS =   354632736.0000       HEAD DEP BOUNDS =       6.9034E-03
            RECHARGE =           0.0000              RECHARGE =           0.0000
          SWIADDTOCH =           0.0000            SWIADDTOCH =           0.0000

           TOTAL OUT =   776005120.0000             TOTAL OUT =           0.3910

            IN - OUT =      -12800.0000              IN - OUT =      -2.9802E-08

 PERCENT DISCREPANCY =          -0.00     PERCENT DISCREPANCY =          -0.00






         TIME SUMMARY AT END OF TIME STEP   38 IN STRESS PERIOD    2
                    SECONDS     MINUTES      HOURS       DAYS        YEARS
                    -----------------------------------------------------------
   TIME STEP LENGTH 1.57680E+07 2.62800E+05  4380.0      182.50     0.49966    
 STRESS PERIOD TIME 5.99184E+08 9.98640E+06 1.66440E+05  6935.0      18.987    
         TOTAL TIME 3.75279E+09 6.25464E+07 1.04244E+06  43435.      118.92    
1
 
 SOLVING FOR HEAD 

 CELL CONVERSIONS FOR ITER.=  2  LAYER=  1  STEP= 39  PERIOD=   2   (ROW,COL)
    DRY(  7, 23)   DRY(  8, 28)   DRY( 22, 40)   DRY( 35, 36)   
    10 CALLS TO PCG ROUTINE FOR TIME STEP  39 IN STRESS PERIOD    2
    26 TOTAL ITERATIONS

 MAXIMUM HEAD CHANGE FOR EACH ITERATION (1 INDICATES THE FIRST INNER ITERATION):

    HEAD CHANGE    HEAD CHANGE    HEAD CHANGE    HEAD CHANGE    HEAD CHANGE 
   LAYER,ROW,COL  LAYER,ROW,COL  LAYER,ROW,COL  LAYER,ROW,COL  LAYER,ROW,COL
 ---------------------------------------------------------------------------
  1 -0.3153      0  0.1233      0 -0.1954E-01  0 -0.4860E-02  0 -0.1504E-02
   (  1, 19, 10)  (  2, 19, 10)  (  2, 19, 11)  (  2, 14,  9)  (  2, 19,  8)
  0 -0.3595E-03  1 -0.5884E-01  0  0.6912E-02  0  0.1826E-02  0 -0.6081E-03
   (  2, 27, 13)  (  2, 35, 36)  (  2, 54, 34)  (  2, 54, 34)  (  2, 18, 43)
  1 -0.1889E-01  0 -0.1157E-02  0 -0.2981E-03  1  0.1280E-01  0  0.3336E-03
   (  2, 54, 34)  (  2, 54, 34)  (  2, 54, 34)  (  2, 54, 34)  (  2, 54, 34)
  1 -0.8082E-02  0 -0.2890E-03  1  0.5009E-02  0  0.2163E-03  1 -0.3069E-02
   (  2, 54, 34)  (  2, 54, 34)  (  2, 54, 34)  (  2, 54, 34)  (  2, 54, 34)
  0 -0.1649E-03  1  0.1884E-02  0  0.1021E-03  1 -0.1148E-02  0 -0.6919E-04
   (  2, 54, 34)  (  2, 54, 34)  (  2, 54, 34)  (  2, 54, 34)  (  2, 54, 34)
  1  0.7027E-03
   (  2, 54, 34)

 MAXIMUM RESIDUAL FOR EACH ITERATION (1 INDICATES THE FIRST INNER ITERATION):

    RESIDUAL       RESIDUAL       RESIDUAL       RESIDUAL       RESIDUAL    
   LAYER,ROW,COL  LAYER,ROW,COL  LAYER,ROW,COL  LAYER,ROW,COL  LAYER,ROW,COL
 ---------------------------------------------------------------------------
  1 -0.7757E-03  0  0.1377E-03  0  0.4720E-04  0 -0.1504E-04  0 -0.4117E-05
   (  2, 19, 10)  (  2, 19, 11)  (  2, 17, 10)  (  2, 20,  9)  (  2, 20,  9)
  0 -0.1120E-05  1  0.3537E-04  0  0.1309E-04  0  0.4389E-05  0  0.1020E-05
   (  2, 16,  7)  (  2, 35, 36)  (  2, 36, 35)  (  2, 36, 35)  (  2, 21, 41)
  1  0.9430E-06  0 -0.3496E-06  0 -0.8893E-07  1  0.4729E-06  0  0.1415E-06
   (  2,  5, 17)  (  2, 52, 35)  (  2, 52, 35)  (  2, 52, 35)  (  2, 52, 35)
  1 -0.3400E-06  0 -0.1817E-06  1  0.2539E-06  0  0.1268E-06  1 -0.1622E-06
   (  2, 52, 35)  (  2, 52, 35)  (  2, 52, 35)  (  2, 52, 35)  (  2, 52, 35)
  0 -0.9054E-07  1  0.1056E-06  0  0.5555E-07  1 -0.6426E-07  0 -0.3618E-07
   (  2, 52, 35)  (  2, 52, 35)  (  2, 52, 35)  (  2, 52, 35)  (  2, 52, 35)
  1  0.4044E-07
   (  2, 52, 35)



 OUTPUT CONTROL FOR STRESS PERIOD    2   TIME STEP   39
    SAVE HEAD FOR ALL LAYERS
    SAVE DRAWDOWN FOR ALL LAYERS
    SAVE BUDGET
    PRINT BUDGET
 UBDSV1 SAVING "         STORAGE" ON UNIT   9 AT TIME STEP 39, STRESS PERIOD   2
 UBDSV2 SAVING "   CONSTANT HEAD" ON UNIT   9 AT TIME STEP 39, STRESS PERIOD   2
 UBDSV1 SAVING "FLOW RIGHT FACE " ON UNIT   9 AT TIME STEP 39, STRESS PERIOD   2
 UBDSV1 SAVING "FLOW FRONT FACE " ON UNIT   9 AT TIME STEP 39, STRESS PERIOD   2
 UBDSV1 SAVING "FLOW LOWER FACE " ON UNIT   9 AT TIME STEP 39, STRESS PERIOD   2
 UBDSV4 SAVING "           WELLS" ON UNIT   9 AT TIME STEP 39, STRESS PERIOD   2
 UBDSV4 SAVING "   RIVER LEAKAGE" ON UNIT   9 AT TIME STEP 39, STRESS PERIOD   2
 UBDSV3 SAVING "              ET" ON UNIT   9 AT TIME STEP 39, STRESS PERIOD   2
 UBDSV4 SAVING " HEAD DEP BOUNDS" ON UNIT   9 AT TIME STEP 39, STRESS PERIOD   2
 UBDSV3 SAVING "        RECHARGE" ON UNIT   9 AT TIME STEP 39, STRESS PERIOD   2
 SOLVING FOR ZETA FOR LAYER     1 ZONE     2
     2 CALLS TO PCG ROUTINE FOR TIME STEP  39 IN STRESS PERIOD    2
     4 TOTAL ITERATIONS

 MAXIMUM HEAD CHANGE FOR EACH ITERATION (1 INDICATES THE FIRST INNER ITERATION):

    HEAD CHANGE    HEAD CHANGE    HEAD CHANGE    HEAD CHANGE    HEAD CHANGE 
   LAYER,ROW,COL  LAYER,ROW,COL  LAYER,ROW,COL  LAYER,ROW,COL  LAYER,ROW,COL
 ---------------------------------------------------------------------------
  1   20.28      0  0.6438E-01  0  0.5196E-03  1  0.8533E-05
   (  1, 20,  8)  (  1, 21,  7)  (  1, 23,  5)  (  1, 12,  3)

 MAXIMUM RESIDUAL FOR EACH ITERATION (1 INDICATES THE FIRST INNER ITERATION):

    RESIDUAL       RESIDUAL       RESIDUAL       RESIDUAL       RESIDUAL    
   LAYER,ROW,COL  LAYER,ROW,COL  LAYER,ROW,COL  LAYER,ROW,COL  LAYER,ROW,COL
 ---------------------------------------------------------------------------
  1 -0.1966E-04  0 -0.1716E-06  0 -0.3152E-08  1 -0.4674E-10
   (  1, 21,  7)  (  1, 23,  5)  (  1, 12,  3)  (  1, 13,  2)


 SOLVING FOR ZETA FOR LAYER     2 ZONE     2
     2 CALLS TO PCG ROUTINE FOR TIME STEP  39 IN STRESS PERIOD    2
     4 TOTAL ITERATIONS

 MAXIMUM HEAD CHANGE FOR EACH ITERATION (1 INDICATES THE FIRST INNER ITERATION):

    HEAD CHANGE    HEAD CHANGE    HEAD CHANGE    HEAD CHANGE    HEAD CHANGE 
   LAYER,ROW,COL  LAYER,ROW,COL  LAYER,ROW,COL  LAYER,ROW,COL  LAYER,ROW,COL
 ---------------------------------------------------------------------------
  1   6.306      0  0.5998E-01  0 -0.6879E-03  1  0.6997E-05
   (  1, 21,  9)  (  1, 13,  7)  (  1, 21,  9)  (  1, 26,  5)

 MAXIMUM RESIDUAL FOR EACH ITERATION (1 INDICATES THE FIRST INNER ITERATION):

    RESIDUAL       RESIDUAL       RESIDUAL       RESIDUAL       RESIDUAL    
   LAYER,ROW,COL  LAYER,ROW,COL  LAYER,ROW,COL  LAYER,ROW,COL  LAYER,ROW,COL
 ---------------------------------------------------------------------------
  1 -0.1852E-04  0 -0.1938E-06  0 -0.2560E-08  1 -0.7706E-10
   (  1, 13,  7)  (  1, 12,  8)  (  1, 26,  5)  (  1, 25,  6)


 UBUDSV SAVING "      ZETASRF  1" ON UNIT170 AT TIME STEP 39, STRESS PERIOD    2


                      VOLUMETRIC SWI ZONE BUDGET FOR ENTIRE MODEL
                     AT END OF TIME STEP   39 IN STRESS PERIOD   2
                                      ZONE     1
  -----------------------------------------------------------------------------------

        CUMULATIVE VOLUMES      L**3       RATES FOR THIS TIME STEP      L**3/T
        ------------------                 ------------------------

              IN:                                      IN:
              ---                                      ---
             BOUNDARIES =   646615808.0000            BOUNDARIES =           0.2111
          CONSTANT HEAD =           0.0000         CONSTANT HEAD =           0.0000
            ZONE CHANGE =   157527328.0000           ZONE CHANGE =       8.5375E-02
       ZONE CHG TIP/TOE =     6902250.0000      ZONE CHG TIP/TOE =       2.5997E-03
            ZONE MIXING =           0.0000           ZONE MIXING =           0.0000

               TOTAL IN =   811045376.0000              TOTAL IN =           0.2991

             OUT:                                     OUT:
             ----                                     ----
             BOUNDARIES =   702147584.0000            BOUNDARIES =           0.3068
          CONSTANT HEAD =           0.0000         CONSTANT HEAD =           0.0000
            ZONE CHANGE =    26775864.0000           ZONE CHANGE =       5.1772E-03
       ZONE CHG TIP/TOE =     5868566.5000      ZONE CHG TIP/TOE =       1.8001E-03
            ZONE MIXING =      583669.5000           ZONE MIXING =           0.0000

              TOTAL OUT =   735375680.0000             TOTAL OUT =           0.3138

               IN - OUT =    75669696.0000              IN - OUT =      -1.4687E-02

    PERCENT DISCREPANCY =           9.79     PERCENT DISCREPANCY =          -4.79



                      VOLUMETRIC SWI ZONE BUDGET FOR ENTIRE MODEL
                     AT END OF TIME STEP   39 IN STRESS PERIOD   2
                                      ZONE     2
  -----------------------------------------------------------------------------------

        CUMULATIVE VOLUMES      L**3       RATES FOR THIS TIME STEP      L**3/T
        ------------------                 ------------------------

              IN:                                      IN:
              ---                                      ---
             BOUNDARIES =    40504700.0000            BOUNDARIES =           0.1008
          CONSTANT HEAD =           0.0000         CONSTANT HEAD =           0.0000
            ZONE CHANGE =    23202300.0000           ZONE CHANGE =       5.3878E-03
       ZONE CHG TIP/TOE =    10469118.0000      ZONE CHG TIP/TOE =       1.1954E-02
            ZONE MIXING =      583669.5000           ZONE MIXING =           0.0000

               TOTAL IN =    74759792.0000              TOTAL IN =           0.1181

             OUT:                                     OUT:
             ----                                     ----
             BOUNDARIES =    42243004.0000            BOUNDARIES =       6.2907E-02
          CONSTANT HEAD =           0.0000         CONSTANT HEAD =           0.0000
            ZONE CHANGE =    33854888.0000           ZONE CHANGE =       4.7752E-02
       ZONE CHG TIP/TOE =     4113885.7500      ZONE CHG TIP/TOE =       2.3622E-03
            ZONE MIXING =           0.0000           ZONE MIXING =           0.0000

              TOTAL OUT =    80211776.0000             TOTAL OUT =           0.1130

               IN - OUT =    -5451984.0000              IN - OUT =       5.0761E-03

    PERCENT DISCREPANCY =          -7.04     PERCENT DISCREPANCY =           4.39


 HEAD WILL BE SAVED ON UNIT   37 AT END OF TIME STEP   39, STRESS PERIOD    2

 DRAWDOWN WILL BE SAVED ON UNIT   38 AT END OF TIME STEP   39, STRESS PERIOD    2
1
  VOLUMETRIC BUDGET FOR ENTIRE MODEL AT END OF TIME STEP   39, STRESS PERIOD   2
  ------------------------------------------------------------------------------

     CUMULATIVE VOLUMES      L**3       RATES FOR THIS TIME STEP      L**3/T
     ------------------                 ------------------------

           IN:                                      IN:
           ---                                      ---
             STORAGE =    57283016.0000               STORAGE =       5.7923E-02
       CONSTANT HEAD =           0.0000         CONSTANT HEAD =           0.0000
               WELLS =           0.0000                 WELLS =           0.0000
       RIVER LEAKAGE =   135937824.0000         RIVER LEAKAGE =       4.1000E-02
                  ET =           0.0000                    ET =           0.0000
     HEAD DEP BOUNDS =    48817392.0000       HEAD DEP BOUNDS =           0.1069
            RECHARGE =   540115392.0000              RECHARGE =           0.1849
          SWIADDTOCH =           0.0000            SWIADDTOCH =           0.0000

            TOTAL IN =   782153600.0000              TOTAL IN =           0.3907

          OUT:                                     OUT:
          ----                                     ----
             STORAGE =       26005.2734               STORAGE =       8.6817E-05
       CONSTANT HEAD =           0.0000         CONSTANT HEAD =           0.0000
               WELLS =   239358240.0000                 WELLS =           0.3840
       RIVER LEAKAGE =    21630804.0000         RIVER LEAKAGE =           0.0000
                  ET =   166413648.0000                    ET =           0.0000
     HEAD DEP BOUNDS =   354737728.0000       HEAD DEP BOUNDS =       6.6576E-03
            RECHARGE =           0.0000              RECHARGE =           0.0000
          SWIADDTOCH =           0.0000            SWIADDTOCH =           0.0000

           TOTAL OUT =   782166400.0000             TOTAL OUT =           0.3907

            IN - OUT =      -12800.0000              IN - OUT =      -2.9802E-08

 PERCENT DISCREPANCY =          -0.00     PERCENT DISCREPANCY =          -0.00






         TIME SUMMARY AT END OF TIME STEP   39 IN STRESS PERIOD    2
                    SECONDS     MINUTES      HOURS       DAYS        YEARS
                    -----------------------------------------------------------
   TIME STEP LENGTH 1.57680E+07 2.62800E+05  4380.0      182.50     0.49966    
 STRESS PERIOD TIME 6.14952E+08 1.02492E+07 1.70820E+05  7117.5      19.487    
         TOTAL TIME 3.76855E+09 6.28092E+07 1.04682E+06  43618.      119.42    
1
 
 SOLVING FOR HEAD 

 CELL CONVERSIONS FOR ITER.=  2  LAYER=  1  STEP= 40  PERIOD=   2   (ROW,COL)
    DRY( 41, 33)   DRY( 42, 31)   
    13 CALLS TO PCG ROUTINE FOR TIME STEP  40 IN STRESS PERIOD    2
    33 TOTAL ITERATIONS

 MAXIMUM HEAD CHANGE FOR EACH ITERATION (1 INDICATES THE FIRST INNER ITERATION):

    HEAD CHANGE    HEAD CHANGE    HEAD CHANGE    HEAD CHANGE    HEAD CHANGE 
   LAYER,ROW,COL  LAYER,ROW,COL  LAYER,ROW,COL  LAYER,ROW,COL  LAYER,ROW,COL
 ---------------------------------------------------------------------------
  1 -0.3422      0  0.7686E-01  0  0.1725E-01  0 -0.3589E-02  0 -0.1210E-02
   (  1, 15,  9)  (  2, 16,  9)  (  2, 14, 11)  (  2,  6,  7)  (  2,  5, 10)
  0  0.4806E-03  1  0.3236      0  0.3672E-01  0  0.9060E-02  0  0.1363E-02
   (  2,  5, 11)  (  2, 42, 31)  (  2, 40, 32)  (  2, 41, 32)  (  2, 38, 37)
  0  0.4284E-03  1 -0.1725E-01  0 -0.2103E-02  0 -0.3640E-03  1  0.1446E-01
   (  2, 49, 23)  (  2, 54, 34)  (  2, 54, 34)  (  2, 54, 34)  (  2, 54, 34)
  0  0.3707E-03  1 -0.1068E-01  0 -0.3580E-03  1  0.7800E-02  0  0.3024E-03
   (  2, 54, 34)  (  2, 54, 34)  (  2, 54, 34)  (  2, 54, 34)  (  2, 54, 34)
  1 -0.5671E-02  0 -0.2548E-03  1  0.4131E-02  0  0.1842E-03  1 -0.3000E-02
   (  2, 54, 34)  (  2, 54, 34)  (  2, 54, 34)  (  2, 54, 34)  (  2, 54, 34)
  0 -0.1432E-03  1  0.2183E-02  0  0.1014E-03  1 -0.1585E-02  0 -0.7653E-04
   (  2, 54, 34)  (  2, 54, 34)  (  2, 54, 34)  (  2, 54, 34)  (  2, 54, 34)
  1  0.1153E-02  0  0.5435E-04  1 -0.8370E-03
   (  2, 54, 34)  (  2, 54, 34)  (  2, 54, 34)

 MAXIMUM RESIDUAL FOR EACH ITERATION (1 INDICATES THE FIRST INNER ITERATION):

    RESIDUAL       RESIDUAL       RESIDUAL       RESIDUAL       RESIDUAL    
   LAYER,ROW,COL  LAYER,ROW,COL  LAYER,ROW,COL  LAYER,ROW,COL  LAYER,ROW,COL
 ---------------------------------------------------------------------------
  1  0.4146E-03  0 -0.1198E-03  0 -0.3701E-04  0  0.1155E-04  0  0.4010E-05
   (  2, 14,  9)  (  1, 15,  9)  (  2, 14, 10)  (  2, 15,  9)  (  2, 20,  8)
  0  0.1146E-05  1 -0.2370E-03  0 -0.6700E-04  0 -0.1137E-04  0 -0.3465E-05
   (  2, 20,  8)  (  2, 42, 31)  (  2, 41, 32)  (  2, 41, 32)  (  2, 44, 29)
  0 -0.1377E-05  1  0.1874E-05  0 -0.6827E-06  0 -0.1721E-06  1  0.5261E-06
   (  2, 40, 33)  (  2, 40, 29)  (  2, 43, 30)  (  2, 43, 30)  (  2, 52, 35)
  0  0.1738E-06  1 -0.4377E-06  0 -0.2346E-06  1  0.3728E-06  0  0.1765E-06
   (  2, 52, 35)  (  2, 52, 35)  (  2, 52, 35)  (  2, 52, 35)  (  2, 52, 35)
  1 -0.2747E-06  0 -0.1487E-06  1  0.2106E-06  0  0.1047E-06  1 -0.1514E-06
   (  2, 52, 35)  (  2, 52, 35)  (  2, 52, 35)  (  2, 52, 35)  (  2, 52, 35)
  0 -0.8144E-07  1  0.1129E-06  0  0.5732E-07  1 -0.8104E-07  0 -0.4328E-07
   (  2, 52, 35)  (  2, 52, 35)  (  2, 52, 35)  (  2, 52, 35)  (  2, 52, 35)
  1  0.5977E-07  0  0.3068E-07  1 -0.4301E-07
   (  2, 52, 35)  (  2, 52, 35)  (  2, 52, 35)



 OUTPUT CONTROL FOR STRESS PERIOD    2   TIME STEP   40
    SAVE HEAD FOR ALL LAYERS
    SAVE DRAWDOWN FOR ALL LAYERS
    SAVE BUDGET
    PRINT BUDGET
 UBDSV1 SAVING "         STORAGE" ON UNIT   9 AT TIME STEP 40, STRESS PERIOD   2
 UBDSV2 SAVING "   CONSTANT HEAD" ON UNIT   9 AT TIME STEP 40, STRESS PERIOD   2
 UBDSV1 SAVING "FLOW RIGHT FACE " ON UNIT   9 AT TIME STEP 40, STRESS PERIOD   2
 UBDSV1 SAVING "FLOW FRONT FACE " ON UNIT   9 AT TIME STEP 40, STRESS PERIOD   2
 UBDSV1 SAVING "FLOW LOWER FACE " ON UNIT   9 AT TIME STEP 40, STRESS PERIOD   2
 UBDSV4 SAVING "           WELLS" ON UNIT   9 AT TIME STEP 40, STRESS PERIOD   2
 UBDSV4 SAVING "   RIVER LEAKAGE" ON UNIT   9 AT TIME STEP 40, STRESS PERIOD   2
 UBDSV3 SAVING "              ET" ON UNIT   9 AT TIME STEP 40, STRESS PERIOD   2
 UBDSV4 SAVING " HEAD DEP BOUNDS" ON UNIT   9 AT TIME STEP 40, STRESS PERIOD   2
 UBDSV3 SAVING "        RECHARGE" ON UNIT   9 AT TIME STEP 40, STRESS PERIOD   2
 SOLVING FOR ZETA FOR LAYER     1 ZONE     2
     2 CALLS TO PCG ROUTINE FOR TIME STEP  40 IN STRESS PERIOD    2
     4 TOTAL ITERATIONS

 MAXIMUM HEAD CHANGE FOR EACH ITERATION (1 INDICATES THE FIRST INNER ITERATION):

    HEAD CHANGE    HEAD CHANGE    HEAD CHANGE    HEAD CHANGE    HEAD CHANGE 
   LAYER,ROW,COL  LAYER,ROW,COL  LAYER,ROW,COL  LAYER,ROW,COL  LAYER,ROW,COL
 ---------------------------------------------------------------------------
  1   25.99      0 -0.6324E-01  0 -0.6098E-03  1  0.7171E-05
   (  1, 20,  9)  (  1, 16,  6)  (  1, 15,  7)  (  1, 12,  3)

 MAXIMUM RESIDUAL FOR EACH ITERATION (1 INDICATES THE FIRST INNER ITERATION):

    RESIDUAL       RESIDUAL       RESIDUAL       RESIDUAL       RESIDUAL    
   LAYER,ROW,COL  LAYER,ROW,COL  LAYER,ROW,COL  LAYER,ROW,COL  LAYER,ROW,COL
 ---------------------------------------------------------------------------
  1  0.1853E-04  0  0.1838E-06  0 -0.2682E-08  1 -0.3174E-10
   (  1, 16,  6)  (  1, 15,  7)  (  1, 12,  3)  (  1, 11,  4)


 SOLVING FOR ZETA FOR LAYER     2 ZONE     2
     2 CALLS TO PCG ROUTINE FOR TIME STEP  40 IN STRESS PERIOD    2
     4 TOTAL ITERATIONS

 MAXIMUM HEAD CHANGE FOR EACH ITERATION (1 INDICATES THE FIRST INNER ITERATION):

    HEAD CHANGE    HEAD CHANGE    HEAD CHANGE    HEAD CHANGE    HEAD CHANGE 
   LAYER,ROW,COL  LAYER,ROW,COL  LAYER,ROW,COL  LAYER,ROW,COL  LAYER,ROW,COL
 ---------------------------------------------------------------------------
  1   5.536      0  0.6259E-01  0  0.7808E-03  1 -0.4764E-05
   (  1, 21,  9)  (  1, 13,  7)  (  1, 12,  8)  (  1, 23,  8)

 MAXIMUM RESIDUAL FOR EACH ITERATION (1 INDICATES THE FIRST INNER ITERATION):

    RESIDUAL       RESIDUAL       RESIDUAL       RESIDUAL       RESIDUAL    
   LAYER,ROW,COL  LAYER,ROW,COL  LAYER,ROW,COL  LAYER,ROW,COL  LAYER,ROW,COL
 ---------------------------------------------------------------------------
  1 -0.1965E-04  0 -0.2692E-06  0  0.1429E-08  1 -0.2410E-10
   (  1, 13,  7)  (  1, 12,  8)  (  1, 23,  8)  (  1, 23,  7)


 UBUDSV SAVING "      ZETASRF  1" ON UNIT170 AT TIME STEP 40, STRESS PERIOD    2


                      VOLUMETRIC SWI ZONE BUDGET FOR ENTIRE MODEL
                     AT END OF TIME STEP   40 IN STRESS PERIOD   2
                                      ZONE     1
  -----------------------------------------------------------------------------------

        CUMULATIVE VOLUMES      L**3       RATES FOR THIS TIME STEP      L**3/T
        ------------------                 ------------------------

              IN:                                      IN:
              ---                                      ---
             BOUNDARIES =   649944000.0000            BOUNDARIES =           0.2111
          CONSTANT HEAD =           0.0000         CONSTANT HEAD =           0.0000
            ZONE CHANGE =   158672816.0000           ZONE CHANGE =       7.2646E-02
       ZONE CHG TIP/TOE =     7013315.5000      ZONE CHG TIP/TOE =       7.0437E-03
            ZONE MIXING =           0.0000           ZONE MIXING =           0.0000

               TOTAL IN =   815630144.0000              TOTAL IN =           0.2908

             OUT:                                     OUT:
             ----                                     ----
             BOUNDARIES =   706646976.0000            BOUNDARIES =           0.2853
          CONSTANT HEAD =           0.0000         CONSTANT HEAD =           0.0000
            ZONE CHANGE =    26978906.0000           ZONE CHANGE =       1.2877E-02
       ZONE CHG TIP/TOE =     5949421.0000      ZONE CHG TIP/TOE =       5.1278E-03
            ZONE MIXING =      583669.5000           ZONE MIXING =           0.0000

              TOTAL OUT =   740158976.0000             TOTAL OUT =           0.3034

               IN - OUT =    75471168.0000              IN - OUT =      -1.2594E-02

    PERCENT DISCREPANCY =           9.70     PERCENT DISCREPANCY =          -4.24



                      VOLUMETRIC SWI ZONE BUDGET FOR ENTIRE MODEL
                     AT END OF TIME STEP   40 IN STRESS PERIOD   2
                                      ZONE     2
  -----------------------------------------------------------------------------------

        CUMULATIVE VOLUMES      L**3       RATES FOR THIS TIME STEP      L**3/T
        ------------------                 ------------------------

              IN:                                      IN:
              ---                                      ---
             BOUNDARIES =    42100956.0000            BOUNDARIES =           0.1012
          CONSTANT HEAD =           0.0000         CONSTANT HEAD =           0.0000
            ZONE CHANGE =    23354336.0000           ZONE CHANGE =       9.6421E-03
       ZONE CHG TIP/TOE =    10650599.0000      ZONE CHG TIP/TOE =       1.1509E-02
            ZONE MIXING =      583669.5000           ZONE MIXING =           0.0000

               TOTAL IN =    76689560.0000              TOTAL IN =           0.1224

             OUT:                                     OUT:
             ----                                     ----
             BOUNDARIES =    43541284.0000            BOUNDARIES =       8.2336E-02
          CONSTANT HEAD =           0.0000         CONSTANT HEAD =           0.0000
            ZONE CHANGE =    34382628.0000           ZONE CHANGE =       3.3469E-02
       ZONE CHG TIP/TOE =     4164174.0000      ZONE CHG TIP/TOE =       3.1893E-03
            ZONE MIXING =           0.0000           ZONE MIXING =           0.0000

              TOTAL OUT =    82088080.0000             TOTAL OUT =           0.1190

               IN - OUT =    -5398520.0000              IN - OUT =       3.3908E-03

    PERCENT DISCREPANCY =          -6.80     PERCENT DISCREPANCY =           2.81


 HEAD WILL BE SAVED ON UNIT   37 AT END OF TIME STEP   40, STRESS PERIOD    2

 DRAWDOWN WILL BE SAVED ON UNIT   38 AT END OF TIME STEP   40, STRESS PERIOD    2
1
  VOLUMETRIC BUDGET FOR ENTIRE MODEL AT END OF TIME STEP   40, STRESS PERIOD   2
  ------------------------------------------------------------------------------

     CUMULATIVE VOLUMES      L**3       RATES FOR THIS TIME STEP      L**3/T
     ------------------                 ------------------------

           IN:                                      IN:
           ---                                      ---
             STORAGE =    58156364.0000               STORAGE =       5.5387E-02
       CONSTANT HEAD =           0.0000         CONSTANT HEAD =           0.0000
               WELLS =           0.0000                 WELLS =           0.0000
       RIVER LEAKAGE =   136584320.0000         RIVER LEAKAGE =       4.1000E-02
                  ET =           0.0000                    ET =           0.0000
     HEAD DEP BOUNDS =    50512328.0000       HEAD DEP BOUNDS =           0.1075
            RECHARGE =   543025408.0000              RECHARGE =           0.1846
          SWIADDTOCH =           0.0000            SWIADDTOCH =           0.0000

            TOTAL IN =   788278400.0000              TOTAL IN =           0.3884

          OUT:                                     OUT:
          ----                                     ----
             STORAGE =       26105.8242               STORAGE =       6.3769E-06
       CONSTANT HEAD =           0.0000         CONSTANT HEAD =           0.0000
               WELLS =   245381616.0000                 WELLS =           0.3820
       RIVER LEAKAGE =    21630804.0000         RIVER LEAKAGE =           0.0000
                  ET =   166413648.0000                    ET =           0.0000
     HEAD DEP BOUNDS =   354839008.0000       HEAD DEP BOUNDS =       6.4240E-03
            RECHARGE =           0.0000              RECHARGE =           0.0000
          SWIADDTOCH =           0.0000            SWIADDTOCH =           0.0000

           TOTAL OUT =   788291200.0000             TOTAL OUT =           0.3884

            IN - OUT =      -12800.0000              IN - OUT =      -5.9605E-08

 PERCENT DISCREPANCY =          -0.00     PERCENT DISCREPANCY =          -0.00






         TIME SUMMARY AT END OF TIME STEP   40 IN STRESS PERIOD    2
                    SECONDS     MINUTES      HOURS       DAYS        YEARS
                    -----------------------------------------------------------
   TIME STEP LENGTH 1.57680E+07 2.62800E+05  4380.0      182.50     0.49966    
 STRESS PERIOD TIME 6.30720E+08 1.05120E+07 1.75200E+05  7300.0      19.986    
         TOTAL TIME 3.78432E+09 6.30720E+07 1.05120E+06  43800.      119.92    
1
 
 SOLVING FOR HEAD 

 CELL CONVERSIONS FOR ITER.=  2  LAYER=  1  STEP= 41  PERIOD=   2   (ROW,COL)
    DRY( 46, 23)   DRY( 47, 24)   
    20 CALLS TO PCG ROUTINE FOR TIME STEP  41 IN STRESS PERIOD    2
    45 TOTAL ITERATIONS

 MAXIMUM HEAD CHANGE FOR EACH ITERATION (1 INDICATES THE FIRST INNER ITERATION):

    HEAD CHANGE    HEAD CHANGE    HEAD CHANGE    HEAD CHANGE    HEAD CHANGE 
   LAYER,ROW,COL  LAYER,ROW,COL  LAYER,ROW,COL  LAYER,ROW,COL  LAYER,ROW,COL
 ---------------------------------------------------------------------------
  1 -0.2429      0 -0.6603E-01  0  0.1534E-01  0 -0.4505E-02  0 -0.1550E-02
   (  2, 21,  9)  (  2, 15, 11)  (  2, 10,  9)  (  2,  7,  6)  (  2,  6, 10)
  0  0.4142E-03  1 -0.5622E-01  0 -0.1590E-01  0 -0.1317E-02  0 -0.4289E-03
   (  2,  7, 12)  (  2, 46, 23)  (  2, 48, 22)  (  2, 45, 24)  (  2, 43, 27)
  1 -0.1544E-01  0 -0.6700E-03  1  0.1322E-01  0  0.4498E-03  1 -0.1118E-01
   (  2, 54, 34)  (  2, 54, 34)  (  2, 54, 34)  (  2, 54, 34)  (  2, 54, 34)
  0 -0.3868E-03  1  0.9407E-02  0  0.3533E-03  1 -0.7932E-02  0 -0.3016E-03
   (  2, 54, 34)  (  2, 54, 34)  (  2, 54, 34)  (  2, 54, 34)  (  2, 54, 34)
  1  0.6677E-02  0  0.2630E-03  1 -0.5629E-02  0 -0.2213E-03  1  0.4740E-02
   (  2, 54, 34)  (  2, 54, 34)  (  2, 54, 34)  (  2, 54, 34)  (  2, 54, 34)
  0  0.1894E-03  1 -0.3995E-02  0 -0.1590E-03  1  0.3364E-02  0  0.1349E-03
   (  2, 54, 34)  (  2, 54, 34)  (  2, 54, 34)  (  2, 54, 34)  (  2, 54, 34)
  1 -0.2835E-02  0 -0.1133E-03  1  0.2388E-02  0  0.9584E-04  1 -0.2011E-02
   (  2, 54, 34)  (  2, 54, 34)  (  2, 54, 34)  (  2, 54, 34)  (  2, 54, 34)
  0 -0.8053E-04  1  0.1694E-02  0  0.6800E-04  1 -0.1427E-02  0 -0.5719E-04
   (  2, 54, 34)  (  2, 54, 34)  (  2, 54, 34)  (  2, 54, 34)  (  2, 54, 34)
  1  0.1202E-02  0  0.4824E-04  1 -0.1012E-02  0 -0.4057E-04  1  0.8526E-03
   (  2, 54, 34)  (  2, 54, 34)  (  2, 54, 34)  (  2, 54, 34)  (  2, 54, 34)

 MAXIMUM RESIDUAL FOR EACH ITERATION (1 INDICATES THE FIRST INNER ITERATION):

    RESIDUAL       RESIDUAL       RESIDUAL       RESIDUAL       RESIDUAL    
   LAYER,ROW,COL  LAYER,ROW,COL  LAYER,ROW,COL  LAYER,ROW,COL  LAYER,ROW,COL
 ---------------------------------------------------------------------------
  1 -0.4301E-03  0  0.1146E-03  0  0.4275E-04  0  0.1469E-04  0 -0.5200E-05
   (  2, 21,  9)  (  2, 20,  8)  (  2, 20,  9)  (  2, 20,  9)  (  2, 19, 10)
  0 -0.1789E-05  1  0.2814E-04  0  0.9042E-05  0  0.2206E-05  0 -0.7596E-06
   (  2, 19, 10)  (  2, 47, 22)  (  2, 45, 24)  (  2, 45, 24)  (  2, 48, 22)
  1 -0.5213E-06  0 -0.2473E-06  1  0.5288E-06  0  0.2662E-06  1 -0.4889E-06
   (  2, 43, 23)  (  2, 52, 35)  (  2, 52, 35)  (  2, 52, 35)  (  2, 52, 35)
  0 -0.2344E-06  1  0.4237E-06  0  0.2124E-06  1 -0.3672E-06  0 -0.1806E-06
   (  2, 52, 35)  (  2, 52, 35)  (  2, 52, 35)  (  2, 52, 35)  (  2, 52, 35)
  1  0.3118E-06  0  0.1565E-06  1 -0.2654E-06  0 -0.1320E-06  1  0.2241E-06
   (  2, 52, 35)  (  2, 52, 35)  (  2, 52, 35)  (  2, 52, 35)  (  2, 52, 35)
  0  0.1124E-06  1 -0.1895E-06  0 -0.9464E-07  1  0.1597E-06  0  0.8000E-07
   (  2, 52, 35)  (  2, 52, 35)  (  2, 52, 35)  (  2, 52, 35)  (  2, 52, 35)
  1 -0.1347E-06  0 -0.6740E-07  1  0.1135E-06  0  0.5682E-07  1 -0.9560E-07
   (  2, 52, 35)  (  2, 52, 35)  (  2, 52, 35)  (  2, 52, 35)  (  2, 52, 35)
  0 -0.4788E-07  1  0.8056E-07  0  0.4033E-07  1 -0.6786E-07  0 -0.3400E-07
   (  2, 52, 35)  (  2, 52, 35)  (  2, 52, 35)  (  2, 52, 35)  (  2, 52, 35)
  1  0.5716E-07  0  0.2862E-07  1 -0.4812E-07  0 -0.2412E-07  1  0.4055E-07
   (  2, 52, 35)  (  2, 52, 35)  (  2, 52, 35)  (  2, 52, 35)  (  2, 52, 35)



 OUTPUT CONTROL FOR STRESS PERIOD    2   TIME STEP   41
    SAVE HEAD FOR ALL LAYERS
    SAVE DRAWDOWN FOR ALL LAYERS
    SAVE BUDGET
    PRINT BUDGET
 UBDSV1 SAVING "         STORAGE" ON UNIT   9 AT TIME STEP 41, STRESS PERIOD   2
 UBDSV2 SAVING "   CONSTANT HEAD" ON UNIT   9 AT TIME STEP 41, STRESS PERIOD   2
 UBDSV1 SAVING "FLOW RIGHT FACE " ON UNIT   9 AT TIME STEP 41, STRESS PERIOD   2
 UBDSV1 SAVING "FLOW FRONT FACE " ON UNIT   9 AT TIME STEP 41, STRESS PERIOD   2
 UBDSV1 SAVING "FLOW LOWER FACE " ON UNIT   9 AT TIME STEP 41, STRESS PERIOD   2
 UBDSV4 SAVING "           WELLS" ON UNIT   9 AT TIME STEP 41, STRESS PERIOD   2
 UBDSV4 SAVING "   RIVER LEAKAGE" ON UNIT   9 AT TIME STEP 41, STRESS PERIOD   2
 UBDSV3 SAVING "              ET" ON UNIT   9 AT TIME STEP 41, STRESS PERIOD   2
 UBDSV4 SAVING " HEAD DEP BOUNDS" ON UNIT   9 AT TIME STEP 41, STRESS PERIOD   2
 UBDSV3 SAVING "        RECHARGE" ON UNIT   9 AT TIME STEP 41, STRESS PERIOD   2
 SOLVING FOR ZETA FOR LAYER     1 ZONE     2
     2 CALLS TO PCG ROUTINE FOR TIME STEP  41 IN STRESS PERIOD    2
     4 TOTAL ITERATIONS

 MAXIMUM HEAD CHANGE FOR EACH ITERATION (1 INDICATES THE FIRST INNER ITERATION):

    HEAD CHANGE    HEAD CHANGE    HEAD CHANGE    HEAD CHANGE    HEAD CHANGE 
   LAYER,ROW,COL  LAYER,ROW,COL  LAYER,ROW,COL  LAYER,ROW,COL  LAYER,ROW,COL
 ---------------------------------------------------------------------------
  1   33.77      0  0.2578E-01  0  0.3699E-03  1  0.3475E-05
   (  1, 18, 10)  (  1,  8,  3)  (  1,  7,  4)  (  1,  8,  3)

 MAXIMUM RESIDUAL FOR EACH ITERATION (1 INDICATES THE FIRST INNER ITERATION):

    RESIDUAL       RESIDUAL       RESIDUAL       RESIDUAL       RESIDUAL    
   LAYER,ROW,COL  LAYER,ROW,COL  LAYER,ROW,COL  LAYER,ROW,COL  LAYER,ROW,COL
 ---------------------------------------------------------------------------
  1 -0.8932E-05  0 -0.1174E-06  0 -0.1392E-08  1 -0.1752E-10
   (  1,  8,  3)  (  1,  9,  2)  (  1,  8,  3)  (  1,  9,  2)


 SOLVING FOR ZETA FOR LAYER     2 ZONE     2
     2 CALLS TO PCG ROUTINE FOR TIME STEP  41 IN STRESS PERIOD    2
     4 TOTAL ITERATIONS

 MAXIMUM HEAD CHANGE FOR EACH ITERATION (1 INDICATES THE FIRST INNER ITERATION):

    HEAD CHANGE    HEAD CHANGE    HEAD CHANGE    HEAD CHANGE    HEAD CHANGE 
   LAYER,ROW,COL  LAYER,ROW,COL  LAYER,ROW,COL  LAYER,ROW,COL  LAYER,ROW,COL
 ---------------------------------------------------------------------------
  1   6.992      0  0.4860E-01  0  0.5594E-03  1  0.1295E-04
   (  1, 13,  8)  (  1, 12,  7)  (  1, 26,  5)  (  1, 25,  6)

 MAXIMUM RESIDUAL FOR EACH ITERATION (1 INDICATES THE FIRST INNER ITERATION):

    RESIDUAL       RESIDUAL       RESIDUAL       RESIDUAL       RESIDUAL    
   LAYER,ROW,COL  LAYER,ROW,COL  LAYER,ROW,COL  LAYER,ROW,COL  LAYER,ROW,COL
 ---------------------------------------------------------------------------
  1 -0.1541E-04  0 -0.2009E-06  0 -0.4818E-08  1 -0.9350E-10
   (  1, 12,  7)  (  1, 26,  5)  (  1, 25,  6)  (  1, 26,  5)


 UBUDSV SAVING "      ZETASRF  1" ON UNIT170 AT TIME STEP 41, STRESS PERIOD    2


                      VOLUMETRIC SWI ZONE BUDGET FOR ENTIRE MODEL
                     AT END OF TIME STEP   41 IN STRESS PERIOD   2
                                      ZONE     1
  -----------------------------------------------------------------------------------

        CUMULATIVE VOLUMES      L**3       RATES FOR THIS TIME STEP      L**3/T
        ------------------                 ------------------------

              IN:                                      IN:
              ---                                      ---
             BOUNDARIES =   653268544.0000            BOUNDARIES =           0.2108
          CONSTANT HEAD =           0.0000         CONSTANT HEAD =           0.0000
            ZONE CHANGE =   159872736.0000           ZONE CHANGE =       7.6098E-02
       ZONE CHG TIP/TOE =     7129926.0000      ZONE CHG TIP/TOE =       7.3954E-03
            ZONE MIXING =           0.0000           ZONE MIXING =           0.0000

               TOTAL IN =   820271232.0000              TOTAL IN =           0.2943

             OUT:                                     OUT:
             ----                                     ----
             BOUNDARIES =   711142464.0000            BOUNDARIES =           0.2851
          CONSTANT HEAD =           0.0000         CONSTANT HEAD =           0.0000
            ZONE CHANGE =    27105252.0000           ZONE CHANGE =       8.0128E-03
       ZONE CHG TIP/TOE =     6023537.0000      ZONE CHG TIP/TOE =       4.7004E-03
            ZONE MIXING =      583669.5000           ZONE MIXING =           0.0000

              TOTAL OUT =   744854912.0000             TOTAL OUT =           0.2978

               IN - OUT =    75416320.0000              IN - OUT =      -3.4801E-03

    PERCENT DISCREPANCY =           9.64     PERCENT DISCREPANCY =          -1.18



                      VOLUMETRIC SWI ZONE BUDGET FOR ENTIRE MODEL
                     AT END OF TIME STEP   41 IN STRESS PERIOD   2
                                      ZONE     2
  -----------------------------------------------------------------------------------

        CUMULATIVE VOLUMES      L**3       RATES FOR THIS TIME STEP      L**3/T
        ------------------                 ------------------------

              IN:                                      IN:
              ---                                      ---
             BOUNDARIES =    43713812.0000            BOUNDARIES =           0.1023
          CONSTANT HEAD =           0.0000         CONSTANT HEAD =           0.0000
            ZONE CHANGE =    23449098.0000           ZONE CHANGE =       6.0098E-03
       ZONE CHG TIP/TOE =    10852138.0000      ZONE CHG TIP/TOE =       1.2782E-02
            ZONE MIXING =      583669.5000           ZONE MIXING =           0.0000

               TOTAL IN =    78598720.0000              TOTAL IN =           0.1211

             OUT:                                     OUT:
             ----                                     ----
             BOUNDARIES =    44839564.0000            BOUNDARIES =       8.2336E-02
          CONSTANT HEAD =           0.0000         CONSTANT HEAD =           0.0000
            ZONE CHANGE =    35000572.0000           ZONE CHANGE =       3.9190E-02
       ZONE CHG TIP/TOE =     4244527.0000      ZONE CHG TIP/TOE =       5.0960E-03
            ZONE MIXING =           0.0000           ZONE MIXING =           0.0000

              TOTAL OUT =    84084664.0000             TOTAL OUT =           0.1266

               IN - OUT =    -5485944.0000              IN - OUT =      -5.5442E-03

    PERCENT DISCREPANCY =          -6.74     PERCENT DISCREPANCY =          -4.48


 HEAD WILL BE SAVED ON UNIT   37 AT END OF TIME STEP   41, STRESS PERIOD    2

 DRAWDOWN WILL BE SAVED ON UNIT   38 AT END OF TIME STEP   41, STRESS PERIOD    2
1
  VOLUMETRIC BUDGET FOR ENTIRE MODEL AT END OF TIME STEP   41, STRESS PERIOD   2
  ------------------------------------------------------------------------------

     CUMULATIVE VOLUMES      L**3       RATES FOR THIS TIME STEP      L**3/T
     ------------------                 ------------------------

           IN:                                      IN:
           ---                                      ---
             STORAGE =    59014184.0000               STORAGE =       5.4403E-02
       CONSTANT HEAD =           0.0000         CONSTANT HEAD =           0.0000
               WELLS =           0.0000                 WELLS =           0.0000
       RIVER LEAKAGE =   137230816.0000         RIVER LEAKAGE =       4.1000E-02
                  ET =           0.0000                    ET =           0.0000
     HEAD DEP BOUNDS =    52226244.0000       HEAD DEP BOUNDS =           0.1087
            RECHARGE =   545929408.0000              RECHARGE =           0.1842
          SWIADDTOCH =           0.0000            SWIADDTOCH =           0.0000

            TOTAL IN =   794400640.0000              TOTAL IN =           0.3883

          OUT:                                     OUT:
          ----                                     ----
             STORAGE =       27559.2305               STORAGE =       9.2174E-05
       CONSTANT HEAD =           0.0000         CONSTANT HEAD =           0.0000
               WELLS =   251404992.0000                 WELLS =           0.3820
       RIVER LEAKAGE =    21630804.0000         RIVER LEAKAGE =           0.0000
                  ET =   166413648.0000                    ET =           0.0000
     HEAD DEP BOUNDS =   354936416.0000       HEAD DEP BOUNDS =       6.1768E-03
            RECHARGE =           0.0000              RECHARGE =           0.0000
          SWIADDTOCH =           0.0000            SWIADDTOCH =           0.0000

           TOTAL OUT =   794413440.0000             TOTAL OUT =           0.3883

            IN - OUT =      -12800.0000              IN - OUT =      -5.9605E-08

 PERCENT DISCREPANCY =          -0.00     PERCENT DISCREPANCY =          -0.00






         TIME SUMMARY AT END OF TIME STEP   41 IN STRESS PERIOD    2
                    SECONDS     MINUTES      HOURS       DAYS        YEARS
                    -----------------------------------------------------------
   TIME STEP LENGTH 1.57680E+07 2.62800E+05  4380.0      182.50     0.49966    
 STRESS PERIOD TIME 6.46488E+08 1.07748E+07 1.79580E+05  7482.5      20.486    
         TOTAL TIME 3.80009E+09 6.33348E+07 1.05558E+06  43983.      120.42    
1
 
 SOLVING FOR HEAD 

 CELL CONVERSIONS FOR ITER.=  2  LAYER=  1  STEP= 42  PERIOD=   2   (ROW,COL)
    DRY( 19, 39)   
    61 CALLS TO PCG ROUTINE FOR TIME STEP  42 IN STRESS PERIOD    2
   127 TOTAL ITERATIONS

 MAXIMUM HEAD CHANGE FOR EACH ITERATION (1 INDICATES THE FIRST INNER ITERATION):

    HEAD CHANGE    HEAD CHANGE    HEAD CHANGE    HEAD CHANGE    HEAD CHANGE 
   LAYER,ROW,COL  LAYER,ROW,COL  LAYER,ROW,COL  LAYER,ROW,COL  LAYER,ROW,COL
 ---------------------------------------------------------------------------
  1 -0.2667      0 -0.5652E-01  0 -0.1404E-01  0 -0.3305E-02  0 -0.1225E-02
   (  1, 16, 10)  (  2, 20, 10)  (  2, 12,  8)  (  2, 16,  8)  (  2, 14,  6)
  0  0.5237E-03  1 -0.4343E-01  0 -0.7061E-02  0 -0.1374E-02  0  0.4315E-03
   (  2,  5, 11)  (  2, 19, 39)  (  2, 17, 40)  (  2, 18, 40)  (  2, 54, 39)
  1 -0.1215E-01  0 -0.5008E-03  1  0.1180E-01  0  0.3615E-03  1 -0.1130E-01
   (  2, 54, 34)  (  2, 54, 34)  (  2, 54, 34)  (  2, 54, 34)  (  2, 54, 34)
  0 -0.3495E-03  1  0.1080E-01  0  0.3608E-03  1 -0.1033E-01  0 -0.3477E-03
   (  2, 54, 34)  (  2, 54, 34)  (  2, 54, 34)  (  2, 54, 34)  (  2, 54, 34)
  1  0.9876E-02  0  0.3432E-03  1 -0.9454E-02  0 -0.3262E-03  1  0.9041E-02
   (  2, 54, 34)  (  2, 54, 34)  (  2, 54, 34)  (  2, 54, 34)  (  2, 54, 34)
  0  0.3178E-03  1 -0.8656E-02  0 -0.3012E-03  1  0.8280E-02  0  0.2919E-03
   (  2, 54, 34)  (  2, 54, 34)  (  2, 54, 34)  (  2, 54, 34)  (  2, 54, 34)
  1 -0.7927E-02  0 -0.2767E-03  1  0.7584E-02  0  0.2675E-03  1 -0.7260E-02
   (  2, 54, 34)  (  2, 54, 34)  (  2, 54, 34)  (  2, 54, 34)  (  2, 54, 34)
  0 -0.2538E-03  1  0.6946E-02  0  0.2449E-03  1 -0.6650E-02  0 -0.2326E-03
   (  2, 54, 34)  (  2, 54, 34)  (  2, 54, 34)  (  2, 54, 34)  (  2, 54, 34)
  1  0.6363E-02  0  0.2243E-03  1 -0.6091E-02  0 -0.2131E-03  1  0.5829E-02
   (  2, 54, 34)  (  2, 54, 34)  (  2, 54, 34)  (  2, 54, 34)  (  2, 54, 34)
  0  0.2053E-03  1 -0.5580E-02  0 -0.1953E-03  1  0.5338E-02  0  0.1880E-03
   (  2, 54, 34)  (  2, 54, 34)  (  2, 54, 34)  (  2, 54, 34)  (  2, 54, 34)
  1 -0.5110E-02  0 -0.1789E-03  1  0.4891E-02  0  0.1722E-03  1 -0.4682E-02
   (  2, 54, 34)  (  2, 54, 34)  (  2, 54, 34)  (  2, 54, 34)  (  2, 54, 34)
  0 -0.1639E-03  1  0.4480E-02  0  0.1577E-03  1 -0.4288E-02  0 -0.1502E-03
   (  2, 54, 34)  (  2, 54, 34)  (  2, 54, 34)  (  2, 54, 34)  (  2, 54, 34)
  1  0.4104E-02  0  0.1444E-03  1 -0.3930E-02  0 -0.1376E-03  1  0.3762E-02
   (  2, 54, 34)  (  2, 54, 34)  (  2, 54, 34)  (  2, 54, 34)  (  2, 54, 34)
  0  0.1323E-03  1 -0.3602E-02  0 -0.1262E-03  1  0.3448E-02  0  0.1213E-03
   (  2, 54, 34)  (  2, 54, 34)  (  2, 54, 34)  (  2, 54, 34)  (  2, 54, 34)
  1 -0.3303E-02  0 -0.1157E-03  1  0.3163E-02  0  0.1112E-03  1 -0.3029E-02
   (  2, 54, 34)  (  2, 54, 34)  (  2, 54, 34)  (  2, 54, 34)  (  2, 54, 34)
  0 -0.1061E-03  1  0.2900E-02  0  0.1019E-03  1 -0.2777E-02  0 -0.9728E-04
   (  2, 54, 34)  (  2, 54, 34)  (  2, 54, 34)  (  2, 54, 34)  (  2, 54, 34)
  1  0.2658E-02  0  0.9342E-04  1 -0.2546E-02  0 -0.8919E-04  1  0.2438E-02
   (  2, 54, 34)  (  2, 54, 34)  (  2, 54, 34)  (  2, 54, 34)  (  2, 54, 34)
  0  0.8565E-04  1 -0.2334E-02  0 -0.8179E-04  1  0.2233E-02  0  0.7849E-04
   (  2, 54, 34)  (  2, 54, 34)  (  2, 54, 34)  (  2, 54, 34)  (  2, 54, 34)
  1 -0.2138E-02  0 -0.7495E-04  1  0.2046E-02  0  0.7191E-04  1 -0.1958E-02
   (  2, 54, 34)  (  2, 54, 34)  (  2, 54, 34)  (  2, 54, 34)  (  2, 54, 34)
  0 -0.6866E-04  1  0.1875E-02  0  0.6587E-04  1 -0.1796E-02  0 -0.6295E-04
   (  2, 54, 34)  (  2, 54, 34)  (  2, 54, 34)  (  2, 54, 34)  (  2, 54, 34)
  1  0.1720E-02  0  0.6040E-04  1 -0.1648E-02  0 -0.5774E-04  1  0.1577E-02
   (  2, 54, 34)  (  2, 54, 34)  (  2, 54, 34)  (  2, 54, 34)  (  2, 54, 34)
  0  0.5539E-04  1 -0.1510E-02  0 -0.5294E-04  1  0.1447E-02  0  0.5078E-04
   (  2, 54, 34)  (  2, 54, 34)  (  2, 54, 34)  (  2, 54, 34)  (  2, 54, 34)
  1 -0.1385E-02  0 -0.4855E-04  1  0.1325E-02  0  0.4654E-04  1 -0.1268E-02
   (  2, 54, 34)  (  2, 54, 34)  (  2, 54, 34)  (  2, 54, 34)  (  2, 54, 34)
  0 -0.4449E-04  1  0.1215E-02  0  0.4267E-04  1 -0.1164E-02  0 -0.4082E-04
   (  2, 54, 34)  (  2, 54, 34)  (  2, 54, 34)  (  2, 54, 34)  (  2, 54, 34)
  1  0.1115E-02  0  0.3915E-04  1 -0.1067E-02  0 -0.3744E-04  1  0.1021E-02
   (  2, 54, 34)  (  2, 54, 34)  (  2, 54, 34)  (  2, 54, 34)  (  2, 54, 34)
  0  0.3587E-04  1 -0.9773E-03
   (  2, 54, 34)  (  2, 54, 34)

 MAXIMUM RESIDUAL FOR EACH ITERATION (1 INDICATES THE FIRST INNER ITERATION):

    RESIDUAL       RESIDUAL       RESIDUAL       RESIDUAL       RESIDUAL    
   LAYER,ROW,COL  LAYER,ROW,COL  LAYER,ROW,COL  LAYER,ROW,COL  LAYER,ROW,COL
 ---------------------------------------------------------------------------
  1 -0.4371E-03  0 -0.1176E-03  0 -0.3974E-04  0 -0.9321E-05  0  0.3207E-05
   (  2, 21,  9)  (  1, 16, 10)  (  2, 20,  8)  (  2, 20,  8)  (  2, 18, 10)
  0  0.9640E-06  1  0.2548E-04  0  0.9319E-05  0  0.2715E-05  0  0.5899E-06
   (  2, 18, 10)  (  2, 18, 40)  (  2, 20, 38)  (  2, 20, 38)  (  2, 18, 40)
  1 -0.5796E-06  0 -0.2001E-06  1  0.4485E-06  0  0.2336E-06  1 -0.4710E-06
   (  2,  5, 11)  (  2, 55, 32)  (  2, 52, 35)  (  2, 52, 35)  (  2, 52, 35)
  0 -0.2176E-06  1  0.4574E-06  0  0.2265E-06  1 -0.4506E-06  0 -0.2124E-06
   (  2, 52, 35)  (  2, 52, 35)  (  2, 52, 35)  (  2, 52, 35)  (  2, 52, 35)
  1  0.4324E-06  0  0.2105E-06  1 -0.4181E-06  0 -0.1996E-06  1  0.4005E-06
   (  2, 52, 35)  (  2, 52, 35)  (  2, 52, 35)  (  2, 52, 35)  (  2, 52, 35)
  0  0.1934E-06  1 -0.3843E-06  0 -0.1847E-06  1  0.3683E-06  0  0.1772E-06
   (  2, 52, 35)  (  2, 52, 35)  (  2, 52, 35)  (  2, 52, 35)  (  2, 52, 35)
  1 -0.3523E-06  0 -0.1698E-06  1  0.3378E-06  0  0.1622E-06  1 -0.3228E-06
   (  2, 52, 35)  (  2, 52, 35)  (  2, 52, 35)  (  2, 52, 35)  (  2, 52, 35)
  0 -0.1558E-06  1  0.3095E-06  0  0.1485E-06  1 -0.2957E-06  0 -0.1427E-06
   (  2, 52, 35)  (  2, 52, 35)  (  2, 52, 35)  (  2, 52, 35)  (  2, 52, 35)
  1  0.2835E-06  0  0.1360E-06  1 -0.2708E-06  0 -0.1308E-06  1  0.2597E-06
   (  2, 52, 35)  (  2, 52, 35)  (  2, 52, 35)  (  2, 52, 35)  (  2, 52, 35)
  0  0.1246E-06  1 -0.2481E-06  0 -0.1198E-06  1  0.2379E-06  0  0.1141E-06
   (  2, 52, 35)  (  2, 52, 35)  (  2, 52, 35)  (  2, 52, 35)  (  2, 52, 35)
  1 -0.2272E-06  0 -0.1097E-06  1  0.2179E-06  0  0.1045E-06  1 -0.2082E-06
   (  2, 52, 35)  (  2, 52, 35)  (  2, 52, 35)  (  2, 52, 35)  (  2, 52, 35)
  0 -0.1005E-06  1  0.1996E-06  0  0.9578E-07  1 -0.1907E-06  0 -0.9201E-07
   (  2, 52, 35)  (  2, 52, 35)  (  2, 52, 35)  (  2, 52, 35)  (  2, 52, 35)
  1  0.1828E-06  0  0.8775E-07  1 -0.1748E-06  0 -0.8430E-07  1  0.1676E-06
   (  2, 52, 35)  (  2, 52, 35)  (  2, 52, 35)  (  2, 52, 35)  (  2, 52, 35)
  0  0.8044E-07  1 -0.1602E-06  0 -0.7725E-07  1  0.1536E-06  0  0.7373E-07
   (  2, 52, 35)  (  2, 52, 35)  (  2, 52, 35)  (  2, 52, 35)  (  2, 52, 35)
  1 -0.1468E-06  0 -0.7080E-07  1  0.1408E-06  0  0.6761E-07  1 -0.1347E-06
   (  2, 52, 35)  (  2, 52, 35)  (  2, 52, 35)  (  2, 52, 35)  (  2, 52, 35)
  0 -0.6493E-07  1  0.1291E-06  0  0.6201E-07  1 -0.1235E-06  0 -0.5952E-07
   (  2, 52, 35)  (  2, 52, 35)  (  2, 52, 35)  (  2, 52, 35)  (  2, 52, 35)
  1  0.1184E-06  0  0.5685E-07  1 -0.1132E-06  0 -0.5456E-07  1  0.1085E-06
   (  2, 52, 35)  (  2, 52, 35)  (  2, 52, 35)  (  2, 52, 35)  (  2, 52, 35)
  0  0.5213E-07  1 -0.1038E-06  0 -0.5002E-07  1  0.9942E-07  0  0.4778E-07
   (  2, 52, 35)  (  2, 52, 35)  (  2, 52, 35)  (  2, 52, 35)  (  2, 52, 35)
  1 -0.9510E-07  0 -0.4582E-07  1  0.9109E-07  0  0.4378E-07  1 -0.8710E-07
   (  2, 52, 35)  (  2, 52, 35)  (  2, 52, 35)  (  2, 52, 35)  (  2, 52, 35)
  0 -0.4197E-07  1  0.8346E-07  0  0.4011E-07  1 -0.7987E-07  0 -0.3848E-07
   (  2, 52, 35)  (  2, 52, 35)  (  2, 52, 35)  (  2, 52, 35)  (  2, 52, 35)
  1  0.7655E-07  0  0.3678E-07  1 -0.7327E-07  0 -0.3529E-07  1  0.7020E-07
   (  2, 52, 35)  (  2, 52, 35)  (  2, 52, 35)  (  2, 52, 35)  (  2, 52, 35)
  0  0.3375E-07  1 -0.6717E-07  0 -0.3235E-07  1  0.6437E-07  0  0.3094E-07
   (  2, 52, 35)  (  2, 52, 35)  (  2, 52, 35)  (  2, 52, 35)  (  2, 52, 35)
  1 -0.6159E-07  0 -0.2967E-07  1  0.5896E-07  0  0.2835E-07  1 -0.5642E-07
   (  2, 52, 35)  (  2, 52, 35)  (  2, 52, 35)  (  2, 52, 35)  (  2, 52, 35)
  0 -0.2717E-07  1  0.5408E-07  0  0.2599E-07  1 -0.5178E-07  0 -0.2493E-07
   (  2, 52, 35)  (  2, 52, 35)  (  2, 52, 35)  (  2, 52, 35)  (  2, 52, 35)
  1  0.4961E-07  0  0.2385E-07  1 -0.4747E-07  0 -0.2286E-07  1  0.4546E-07
   (  2, 52, 35)  (  2, 52, 35)  (  2, 52, 35)  (  2, 52, 35)  (  2, 52, 35)
  0  0.2186E-07  1 -0.4348E-07
   (  2, 52, 35)  (  2, 52, 35)



 OUTPUT CONTROL FOR STRESS PERIOD    2   TIME STEP   42
    SAVE HEAD FOR ALL LAYERS
    SAVE DRAWDOWN FOR ALL LAYERS
    SAVE BUDGET
    PRINT BUDGET
 UBDSV1 SAVING "         STORAGE" ON UNIT   9 AT TIME STEP 42, STRESS PERIOD   2
 UBDSV2 SAVING "   CONSTANT HEAD" ON UNIT   9 AT TIME STEP 42, STRESS PERIOD   2
 UBDSV1 SAVING "FLOW RIGHT FACE " ON UNIT   9 AT TIME STEP 42, STRESS PERIOD   2
 UBDSV1 SAVING "FLOW FRONT FACE " ON UNIT   9 AT TIME STEP 42, STRESS PERIOD   2
 UBDSV1 SAVING "FLOW LOWER FACE " ON UNIT   9 AT TIME STEP 42, STRESS PERIOD   2
 UBDSV4 SAVING "           WELLS" ON UNIT   9 AT TIME STEP 42, STRESS PERIOD   2
 UBDSV4 SAVING "   RIVER LEAKAGE" ON UNIT   9 AT TIME STEP 42, STRESS PERIOD   2
 UBDSV3 SAVING "              ET" ON UNIT   9 AT TIME STEP 42, STRESS PERIOD   2
 UBDSV4 SAVING " HEAD DEP BOUNDS" ON UNIT   9 AT TIME STEP 42, STRESS PERIOD   2
 UBDSV3 SAVING "        RECHARGE" ON UNIT   9 AT TIME STEP 42, STRESS PERIOD   2
 SOLVING FOR ZETA FOR LAYER     1 ZONE     2
     2 CALLS TO PCG ROUTINE FOR TIME STEP  42 IN STRESS PERIOD    2
     4 TOTAL ITERATIONS

 MAXIMUM HEAD CHANGE FOR EACH ITERATION (1 INDICATES THE FIRST INNER ITERATION):

    HEAD CHANGE    HEAD CHANGE    HEAD CHANGE    HEAD CHANGE    HEAD CHANGE 
   LAYER,ROW,COL  LAYER,ROW,COL  LAYER,ROW,COL  LAYER,ROW,COL  LAYER,ROW,COL
 ---------------------------------------------------------------------------
  1   22.50      0  0.1109      0  0.3948E-03  1  0.9167E-05
   (  1, 20,  8)  (  1, 21,  8)  (  1,  9,  2)  (  1,  8,  3)

 MAXIMUM RESIDUAL FOR EACH ITERATION (1 INDICATES THE FIRST INNER ITERATION):

    RESIDUAL       RESIDUAL       RESIDUAL       RESIDUAL       RESIDUAL    
   LAYER,ROW,COL  LAYER,ROW,COL  LAYER,ROW,COL  LAYER,ROW,COL  LAYER,ROW,COL
 ---------------------------------------------------------------------------
  1 -0.3022E-04  0 -0.1286E-06  0 -0.3437E-08  1 -0.4701E-10
   (  1, 21,  8)  (  1,  9,  2)  (  1,  8,  3)  (  1,  9,  2)


 SOLVING FOR ZETA FOR LAYER     2 ZONE     2
     2 CALLS TO PCG ROUTINE FOR TIME STEP  42 IN STRESS PERIOD    2
     4 TOTAL ITERATIONS

 MAXIMUM HEAD CHANGE FOR EACH ITERATION (1 INDICATES THE FIRST INNER ITERATION):

    HEAD CHANGE    HEAD CHANGE    HEAD CHANGE    HEAD CHANGE    HEAD CHANGE 
   LAYER,ROW,COL  LAYER,ROW,COL  LAYER,ROW,COL  LAYER,ROW,COL  LAYER,ROW,COL
 ---------------------------------------------------------------------------
  1   5.072      0  0.3583E-01  0  0.7226E-03  1  0.1663E-04
   (  1, 13,  8)  (  1, 10,  6)  (  1, 24,  7)  (  1, 25,  6)

 MAXIMUM RESIDUAL FOR EACH ITERATION (1 INDICATES THE FIRST INNER ITERATION):

    RESIDUAL       RESIDUAL       RESIDUAL       RESIDUAL       RESIDUAL    
   LAYER,ROW,COL  LAYER,ROW,COL  LAYER,ROW,COL  LAYER,ROW,COL  LAYER,ROW,COL
 ---------------------------------------------------------------------------
  1 -0.1262E-04  0 -0.2458E-06  0 -0.6629E-08  1 -0.1227E-09
   (  1, 25,  6)  (  1, 26,  5)  (  1, 25,  6)  (  1, 26,  5)


 UBUDSV SAVING "      ZETASRF  1" ON UNIT170 AT TIME STEP 42, STRESS PERIOD    2


                      VOLUMETRIC SWI ZONE BUDGET FOR ENTIRE MODEL
                     AT END OF TIME STEP   42 IN STRESS PERIOD   2
                                      ZONE     1
  -----------------------------------------------------------------------------------

        CUMULATIVE VOLUMES      L**3       RATES FOR THIS TIME STEP      L**3/T
        ------------------                 ------------------------

              IN:                                      IN:
              ---                                      ---
             BOUNDARIES =   656591936.0000            BOUNDARIES =           0.2108
          CONSTANT HEAD =           0.0000         CONSTANT HEAD =           0.0000
            ZONE CHANGE =   161102080.0000           ZONE CHANGE =       7.7964E-02
       ZONE CHG TIP/TOE =     7148632.5000      ZONE CHG TIP/TOE =       1.1863E-03
            ZONE MIXING =           0.0000           ZONE MIXING =           0.0000

               TOTAL IN =   824842624.0000              TOTAL IN =           0.2899

             OUT:                                     OUT:
             ----                                     ----
             BOUNDARIES =   715940672.0000            BOUNDARIES =           0.3043
          CONSTANT HEAD =           0.0000         CONSTANT HEAD =           0.0000
            ZONE CHANGE =    27209438.0000           ZONE CHANGE =       6.6075E-03
       ZONE CHG TIP/TOE =     6028960.5000      ZONE CHG TIP/TOE =       3.4397E-04
            ZONE MIXING =      583669.5000           ZONE MIXING =           0.0000

              TOTAL OUT =   749762752.0000             TOTAL OUT =           0.3113

               IN - OUT =    75079872.0000              IN - OUT =      -2.1334E-02

    PERCENT DISCREPANCY =           9.54     PERCENT DISCREPANCY =          -7.10



                      VOLUMETRIC SWI ZONE BUDGET FOR ENTIRE MODEL
                     AT END OF TIME STEP   42 IN STRESS PERIOD   2
                                      ZONE     2
  -----------------------------------------------------------------------------------

        CUMULATIVE VOLUMES      L**3       RATES FOR THIS TIME STEP      L**3/T
        ------------------                 ------------------------

              IN:                                      IN:
              ---                                      ---
             BOUNDARIES =    45333592.0000            BOUNDARIES =           0.1027
          CONSTANT HEAD =           0.0000         CONSTANT HEAD =           0.0000
            ZONE CHANGE =    23554586.0000           ZONE CHANGE =       6.6900E-03
       ZONE CHG TIP/TOE =    11065746.0000      ZONE CHG TIP/TOE =       1.3547E-02
            ZONE MIXING =      583669.5000           ZONE MIXING =           0.0000

               TOTAL IN =    80537592.0000              TOTAL IN =           0.1230

             OUT:                                     OUT:
             ----                                     ----
             BOUNDARIES =    45831484.0000            BOUNDARIES =       6.2907E-02
          CONSTANT HEAD =           0.0000         CONSTANT HEAD =           0.0000
            ZONE CHANGE =    35737072.0000           ZONE CHANGE =       4.6709E-02
       ZONE CHG TIP/TOE =     4259324.5000      ZONE CHG TIP/TOE =       9.3844E-04
            ZONE MIXING =           0.0000           ZONE MIXING =           0.0000

              TOTAL OUT =    85827880.0000             TOTAL OUT =           0.1106

               IN - OUT =    -5290288.0000              IN - OUT =       1.2408E-02

    PERCENT DISCREPANCY =          -6.36     PERCENT DISCREPANCY =          10.63


 HEAD WILL BE SAVED ON UNIT   37 AT END OF TIME STEP   42, STRESS PERIOD    2

 DRAWDOWN WILL BE SAVED ON UNIT   38 AT END OF TIME STEP   42, STRESS PERIOD    2
1
  VOLUMETRIC BUDGET FOR ENTIRE MODEL AT END OF TIME STEP   42, STRESS PERIOD   2
  ------------------------------------------------------------------------------

     CUMULATIVE VOLUMES      L**3       RATES FOR THIS TIME STEP      L**3/T
     ------------------                 ------------------------

           IN:                                      IN:
           ---                                      ---
             STORAGE =    59862056.0000               STORAGE =       5.3772E-02
       CONSTANT HEAD =           0.0000         CONSTANT HEAD =           0.0000
               WELLS =           0.0000                 WELLS =           0.0000
       RIVER LEAKAGE =   137877312.0000         RIVER LEAKAGE =       4.1000E-02
                  ET =           0.0000                    ET =           0.0000
     HEAD DEP BOUNDS =    53948932.0000       HEAD DEP BOUNDS =           0.1093
            RECHARGE =   548830400.0000              RECHARGE =           0.1840
          SWIADDTOCH =           0.0000            SWIADDTOCH =           0.0000

            TOTAL IN =   800518656.0000              TOTAL IN =           0.3880

          OUT:                                     OUT:
          ----                                     ----
             STORAGE =       28452.4688               STORAGE =       5.6649E-05
       CONSTANT HEAD =           0.0000         CONSTANT HEAD =           0.0000
               WELLS =   257428368.0000                 WELLS =           0.3820
       RIVER LEAKAGE =    21630804.0000         RIVER LEAKAGE =           0.0000
                  ET =   166413648.0000                    ET =           0.0000
     HEAD DEP BOUNDS =   355030208.0000       HEAD DEP BOUNDS =       5.9474E-03
            RECHARGE =           0.0000              RECHARGE =           0.0000
          SWIADDTOCH =           0.0000            SWIADDTOCH =           0.0000

           TOTAL OUT =   800531456.0000             TOTAL OUT =           0.3880

            IN - OUT =      -12800.0000              IN - OUT =      -2.9802E-08

 PERCENT DISCREPANCY =          -0.00     PERCENT DISCREPANCY =          -0.00






         TIME SUMMARY AT END OF TIME STEP   42 IN STRESS PERIOD    2
                    SECONDS     MINUTES      HOURS       DAYS        YEARS
                    -----------------------------------------------------------
   TIME STEP LENGTH 1.57680E+07 2.62800E+05  4380.0      182.50     0.49966    
 STRESS PERIOD TIME 6.62256E+08 1.10376E+07 1.83960E+05  7665.0      20.986    
         TOTAL TIME 3.81586E+09 6.35976E+07 1.05996E+06  44165.      120.92    
1
 
 SOLVING FOR HEAD 

 CELL CONVERSIONS FOR ITER.=  2  LAYER=  1  STEP= 43  PERIOD=   2   (ROW,COL)
    DRY(  3, 26)   DRY( 45, 23)   

 CELL CONVERSIONS FOR ITER.=  2  LAYER=  2  STEP= 43  PERIOD=   2   (ROW,COL)
    DRY( 54, 34)   

 CELL CONVERSIONS FOR ITER.=  5  LAYER=  1  STEP= 43  PERIOD=   2   (ROW,COL)
    DRY( 43, 28)   
     8 CALLS TO PCG ROUTINE FOR TIME STEP  43 IN STRESS PERIOD    2
    23 TOTAL ITERATIONS

 MAXIMUM HEAD CHANGE FOR EACH ITERATION (1 INDICATES THE FIRST INNER ITERATION):

    HEAD CHANGE    HEAD CHANGE    HEAD CHANGE    HEAD CHANGE    HEAD CHANGE 
   LAYER,ROW,COL  LAYER,ROW,COL  LAYER,ROW,COL  LAYER,ROW,COL  LAYER,ROW,COL
 ---------------------------------------------------------------------------
  1 -0.2992      0  0.6159E-01  0  0.2082E-01  0 -0.4090E-02  0 -0.1018E-02
   (  1, 20,  9)  (  2, 20,  9)  (  1, 19, 10)  (  2, 20,  9)  (  2, 34,  9)
  0 -0.4012E-03  1 -0.6326E-01  0  0.1672E-01  0  0.2085E-02  0  0.5583E-03
   (  1, 35,  8)  (  2,  3, 26)  (  2,  3, 26)  (  2, 45, 23)  (  2, 48, 22)
  1 -0.1021E-01  0  0.2530E-03  1  0.6040E-02  0  0.1105E-03  1 -0.4176E-01
   (  2, 55, 34)  (  2, 18, 10)  (  2, 55, 34)  (  2,  6, 12)  (  2, 43, 28)
  0 -0.4590E-02  0 -0.1143E-02  0 -0.2235E-03  1  0.1587E-02  0  0.4002E-03
   (  2, 42, 30)  (  2, 44, 27)  (  2, 49, 23)  (  2, 54, 37)  (  2, 54, 37)
  1 -0.1002E-02  0 -0.1655E-03  1  0.6856E-03
   (  2, 54, 37)  (  2, 54, 37)  (  2, 54, 37)

 MAXIMUM RESIDUAL FOR EACH ITERATION (1 INDICATES THE FIRST INNER ITERATION):

    RESIDUAL       RESIDUAL       RESIDUAL       RESIDUAL       RESIDUAL    
   LAYER,ROW,COL  LAYER,ROW,COL  LAYER,ROW,COL  LAYER,ROW,COL  LAYER,ROW,COL
 ---------------------------------------------------------------------------
  1 -0.5056E-03  0 -0.1411E-03  0 -0.3723E-04  0 -0.1264E-04  0  0.3973E-05
   (  2, 20,  9)  (  2, 19, 10)  (  2, 14, 10)  (  2, 19,  8)  (  2, 19, 10)
  0  0.1250E-05  1  0.8366E-03  0  0.7652E-04  0  0.1593E-04  0 -0.3609E-05
   (  2, 19, 10)  (  1, 43, 28)  (  1, 43, 28)  (  1, 43, 28)  (  2, 43, 28)
  1  0.8309E-05  0  0.1578E-05  1 -0.3459E-04  0 -0.8499E-05  1  0.2887E-04
   (  1, 43, 28)  (  1, 43, 28)  (  2, 43, 28)  (  2, 43, 28)  (  2, 43, 28)
  0  0.9277E-05  0  0.1551E-05  0  0.4376E-06  1  0.2303E-06  0  0.1103E-06
   (  2, 42, 29)  (  2, 44, 27)  (  2, 45, 26)  (  2, 42, 29)  (  2, 42, 29)
  1 -0.1200E-06  0 -0.3675E-07  1 -0.3134E-07
   (  2,  5, 11)  (  2, 42, 29)  (  2, 40, 29)



 OUTPUT CONTROL FOR STRESS PERIOD    2   TIME STEP   43
    SAVE HEAD FOR ALL LAYERS
    SAVE DRAWDOWN FOR ALL LAYERS
    SAVE BUDGET
    PRINT BUDGET
 UBDSV1 SAVING "         STORAGE" ON UNIT   9 AT TIME STEP 43, STRESS PERIOD   2
 UBDSV2 SAVING "   CONSTANT HEAD" ON UNIT   9 AT TIME STEP 43, STRESS PERIOD   2
 UBDSV1 SAVING "FLOW RIGHT FACE " ON UNIT   9 AT TIME STEP 43, STRESS PERIOD   2
 UBDSV1 SAVING "FLOW FRONT FACE " ON UNIT   9 AT TIME STEP 43, STRESS PERIOD   2
 UBDSV1 SAVING "FLOW LOWER FACE " ON UNIT   9 AT TIME STEP 43, STRESS PERIOD   2
 UBDSV4 SAVING "           WELLS" ON UNIT   9 AT TIME STEP 43, STRESS PERIOD   2
 UBDSV4 SAVING "   RIVER LEAKAGE" ON UNIT   9 AT TIME STEP 43, STRESS PERIOD   2
 UBDSV3 SAVING "              ET" ON UNIT   9 AT TIME STEP 43, STRESS PERIOD   2
 UBDSV4 SAVING " HEAD DEP BOUNDS" ON UNIT   9 AT TIME STEP 43, STRESS PERIOD   2
 UBDSV3 SAVING "        RECHARGE" ON UNIT   9 AT TIME STEP 43, STRESS PERIOD   2
 SOLVING FOR ZETA FOR LAYER     1 ZONE     2
     2 CALLS TO PCG ROUTINE FOR TIME STEP  43 IN STRESS PERIOD    2
     4 TOTAL ITERATIONS

 MAXIMUM HEAD CHANGE FOR EACH ITERATION (1 INDICATES THE FIRST INNER ITERATION):

    HEAD CHANGE    HEAD CHANGE    HEAD CHANGE    HEAD CHANGE    HEAD CHANGE 
   LAYER,ROW,COL  LAYER,ROW,COL  LAYER,ROW,COL  LAYER,ROW,COL  LAYER,ROW,COL
 ---------------------------------------------------------------------------
  1  -9.193      0  0.2815E-01  0  0.4102E-03  1  0.3695E-05
   (  1, 20, 10)  (  1,  9,  4)  (  1, 10,  3)  (  1,  8,  3)

 MAXIMUM RESIDUAL FOR EACH ITERATION (1 INDICATES THE FIRST INNER ITERATION):

    RESIDUAL       RESIDUAL       RESIDUAL       RESIDUAL       RESIDUAL    
   LAYER,ROW,COL  LAYER,ROW,COL  LAYER,ROW,COL  LAYER,ROW,COL  LAYER,ROW,COL
 ---------------------------------------------------------------------------
  1 -0.9849E-05  0 -0.1357E-06  0 -0.1472E-08  1 -0.1943E-10
   (  1,  9,  4)  (  1, 10,  3)  (  1,  8,  3)  (  1,  7,  4)


 SOLVING FOR ZETA FOR LAYER     2 ZONE     2
     2 CALLS TO PCG ROUTINE FOR TIME STEP  43 IN STRESS PERIOD    2
     4 TOTAL ITERATIONS

 MAXIMUM HEAD CHANGE FOR EACH ITERATION (1 INDICATES THE FIRST INNER ITERATION):

    HEAD CHANGE    HEAD CHANGE    HEAD CHANGE    HEAD CHANGE    HEAD CHANGE 
   LAYER,ROW,COL  LAYER,ROW,COL  LAYER,ROW,COL  LAYER,ROW,COL  LAYER,ROW,COL
 ---------------------------------------------------------------------------
  1   6.975      0  0.5812E-01  0  0.6226E-03  1 -0.1011E-04
   (  1, 13,  8)  (  1, 12,  7)  (  1, 11,  8)  (  1, 23,  7)

 MAXIMUM RESIDUAL FOR EACH ITERATION (1 INDICATES THE FIRST INNER ITERATION):

    RESIDUAL       RESIDUAL       RESIDUAL       RESIDUAL       RESIDUAL    
   LAYER,ROW,COL  LAYER,ROW,COL  LAYER,ROW,COL  LAYER,ROW,COL  LAYER,ROW,COL
 ---------------------------------------------------------------------------
  1 -0.1841E-04  0 -0.2459E-06  0  0.4347E-08  1 -0.7314E-10
   (  1, 12,  7)  (  1, 23,  7)  (  1, 23,  7)  (  1, 23,  7)


 UBUDSV SAVING "      ZETASRF  1" ON UNIT170 AT TIME STEP 43, STRESS PERIOD    2


                      VOLUMETRIC SWI ZONE BUDGET FOR ENTIRE MODEL
                     AT END OF TIME STEP   43 IN STRESS PERIOD   2
                                      ZONE     1
  -----------------------------------------------------------------------------------

        CUMULATIVE VOLUMES      L**3       RATES FOR THIS TIME STEP      L**3/T
        ------------------                 ------------------------

              IN:                                      IN:
              ---                                      ---
             BOUNDARIES =   659908096.0000            BOUNDARIES =           0.2103
          CONSTANT HEAD =           0.0000         CONSTANT HEAD =           0.0000
            ZONE CHANGE =   162186976.0000           ZONE CHANGE =       6.8804E-02
       ZONE CHG TIP/TOE =     7247667.0000      ZONE CHG TIP/TOE =       6.2807E-03
            ZONE MIXING =           0.0000           ZONE MIXING =           0.0000

               TOTAL IN =   829342720.0000              TOTAL IN =           0.2854

             OUT:                                     OUT:
             ----                                     ----
             BOUNDARIES =   720274304.0000            BOUNDARIES =           0.2748
          CONSTANT HEAD =           0.0000         CONSTANT HEAD =           0.0000
            ZONE CHANGE =    27432292.0000           ZONE CHANGE =       1.4133E-02
       ZONE CHG TIP/TOE =     6086593.5000      ZONE CHG TIP/TOE =       3.6551E-03
            ZONE MIXING =      583669.5000           ZONE MIXING =           0.0000

              TOTAL OUT =   754376832.0000             TOTAL OUT =           0.2926

               IN - OUT =    74965888.0000              IN - OUT =      -7.2332E-03

    PERCENT DISCREPANCY =           9.47     PERCENT DISCREPANCY =          -2.50



                      VOLUMETRIC SWI ZONE BUDGET FOR ENTIRE MODEL
                     AT END OF TIME STEP   43 IN STRESS PERIOD   2
                                      ZONE     2
  -----------------------------------------------------------------------------------

        CUMULATIVE VOLUMES      L**3       RATES FOR THIS TIME STEP      L**3/T
        ------------------                 ------------------------

              IN:                                      IN:
              ---                                      ---
             BOUNDARIES =    46963712.0000            BOUNDARIES =           0.1034
          CONSTANT HEAD =           0.0000         CONSTANT HEAD =           0.0000
            ZONE CHANGE =    23722248.0000           ZONE CHANGE =       1.0633E-02
       ZONE CHG TIP/TOE =    11162933.0000      ZONE CHG TIP/TOE =       6.1635E-03
            ZONE MIXING =      583669.5000           ZONE MIXING =           0.0000

               TOTAL IN =    82432560.0000              TOTAL IN =           0.1202

             OUT:                                     OUT:
             ----                                     ----
             BOUNDARIES =    47284444.0000            BOUNDARIES =       9.2146E-02
          CONSTANT HEAD =           0.0000         CONSTANT HEAD =           0.0000
            ZONE CHANGE =    36169412.0000           ZONE CHANGE =       2.7419E-02
       ZONE CHG TIP/TOE =     4294586.0000      ZONE CHG TIP/TOE =       2.2363E-03
            ZONE MIXING =           0.0000           ZONE MIXING =           0.0000

              TOTAL OUT =    87748448.0000             TOTAL OUT =           0.1218

               IN - OUT =    -5315888.0000              IN - OUT =      -1.6228E-03

    PERCENT DISCREPANCY =          -6.25     PERCENT DISCREPANCY =          -1.34


 HEAD WILL BE SAVED ON UNIT   37 AT END OF TIME STEP   43, STRESS PERIOD    2

 DRAWDOWN WILL BE SAVED ON UNIT   38 AT END OF TIME STEP   43, STRESS PERIOD    2
1
  VOLUMETRIC BUDGET FOR ENTIRE MODEL AT END OF TIME STEP   43, STRESS PERIOD   2
  ------------------------------------------------------------------------------

     CUMULATIVE VOLUMES      L**3       RATES FOR THIS TIME STEP      L**3/T
     ------------------                 ------------------------

           IN:                                      IN:
           ---                                      ---
             STORAGE =    60702944.0000               STORAGE =       5.3329E-02
       CONSTANT HEAD =           0.0000         CONSTANT HEAD =           0.0000
               WELLS =           0.0000                 WELLS =           0.0000
       RIVER LEAKAGE =   138523808.0000         RIVER LEAKAGE =       4.1000E-02
                  ET =           0.0000                    ET =           0.0000
     HEAD DEP BOUNDS =    55683704.0000       HEAD DEP BOUNDS =           0.1100
            RECHARGE =   551722432.0000              RECHARGE =           0.1834
          SWIADDTOCH =           0.0000            SWIADDTOCH =           0.0000

            TOTAL IN =   806632896.0000              TOTAL IN =           0.3878

          OUT:                                     OUT:
          ----                                     ----
             STORAGE =       29001.9336               STORAGE =       3.4847E-05
       CONSTANT HEAD =           0.0000         CONSTANT HEAD =           0.0000
               WELLS =   263451744.0000                 WELLS =           0.3820
       RIVER LEAKAGE =    21630804.0000         RIVER LEAKAGE =           0.0000
                  ET =   166413648.0000                    ET =           0.0000
     HEAD DEP BOUNDS =   355120448.0000       HEAD DEP BOUNDS =       5.7220E-03
            RECHARGE =           0.0000              RECHARGE =           0.0000
          SWIADDTOCH =           0.0000            SWIADDTOCH =           0.0000

           TOTAL OUT =   806645632.0000             TOTAL OUT =           0.3878

            IN - OUT =      -12736.0000              IN - OUT =      -2.9802E-08

 PERCENT DISCREPANCY =          -0.00     PERCENT DISCREPANCY =          -0.00






         TIME SUMMARY AT END OF TIME STEP   43 IN STRESS PERIOD    2
                    SECONDS     MINUTES      HOURS       DAYS        YEARS
                    -----------------------------------------------------------
   TIME STEP LENGTH 1.57680E+07 2.62800E+05  4380.0      182.50     0.49966    
 STRESS PERIOD TIME 6.78024E+08 1.13004E+07 1.88340E+05  7847.5      21.485    
         TOTAL TIME 3.83163E+09 6.38604E+07 1.06434E+06  44348.      121.42    
1
 
 SOLVING FOR HEAD 

 CELL CONVERSIONS FOR ITER.=  2  LAYER=  1  STEP= 44  PERIOD=   2   (ROW,COL)
    DRY(  2, 26)   DRY( 17, 37)   

 CELL CONVERSIONS FOR ITER.=  7  LAYER=  1  STEP= 44  PERIOD=   2   (ROW,COL)
    DRY(  6, 25)   

 CELL CONVERSIONS FOR ITER.= 10  LAYER=  1  STEP= 44  PERIOD=   2   (ROW,COL)
    DRY(  7, 25)   
    11 CALLS TO PCG ROUTINE FOR TIME STEP  44 IN STRESS PERIOD    2
    31 TOTAL ITERATIONS

 MAXIMUM HEAD CHANGE FOR EACH ITERATION (1 INDICATES THE FIRST INNER ITERATION):

    HEAD CHANGE    HEAD CHANGE    HEAD CHANGE    HEAD CHANGE    HEAD CHANGE 
   LAYER,ROW,COL  LAYER,ROW,COL  LAYER,ROW,COL  LAYER,ROW,COL  LAYER,ROW,COL
 ---------------------------------------------------------------------------
  1  0.2826      0 -0.1040      0 -0.2333E-01  0 -0.5005E-02  0 -0.1124E-02
   (  2, 19, 10)  (  2, 19, 10)  (  2, 15, 10)  (  2, 14, 12)  (  2, 14,  6)
  0  0.4621E-03  1 -0.5048E-01  0 -0.7537E-02  0 -0.1767E-02  0  0.4533E-03
   (  2,  6,  8)  (  2,  2, 26)  (  2,  1, 28)  (  2,  1, 27)  (  2, 54, 39)
  1 -0.2105E-01  0 -0.3304E-03  1  0.5944E-02  0 -0.1150E-03  1 -0.4010E-02
   (  1,  6, 25)  (  1,  6, 25)  (  2, 55, 34)  (  2,  5, 11)  (  2, 55, 34)
  0 -0.3956E-04  1  0.2697E-02  0 -0.3391E-04  1 -0.4327E-01  0 -0.4699E-02
   (  2,  5, 11)  (  2, 55, 34)  (  2,  5, 11)  (  2,  6, 25)  (  2,  5, 27)
  0 -0.1358E-02  0 -0.3724E-03  1 -0.2240E-01  0 -0.3697E-03  1 -0.1926E-02
   (  2,  5, 26)  (  2,  1, 29)  (  1,  7, 25)  (  1,  7, 25)  (  1,  7, 25)
  0 -0.1244E-03  1 -0.4403E-01  0 -0.4475E-02  0 -0.1319E-02  0 -0.3440E-03
   (  2,  4, 18)  (  2,  7, 25)  (  2,  6, 27)  (  2,  6, 26)  (  2,  6, 26)
  1 -0.1842E-03
   (  2, 54, 37)

 MAXIMUM RESIDUAL FOR EACH ITERATION (1 INDICATES THE FIRST INNER ITERATION):

    RESIDUAL       RESIDUAL       RESIDUAL       RESIDUAL       RESIDUAL    
   LAYER,ROW,COL  LAYER,ROW,COL  LAYER,ROW,COL  LAYER,ROW,COL  LAYER,ROW,COL
 ---------------------------------------------------------------------------
  1  0.7920E-03  0  0.1710E-03  0 -0.5096E-04  0 -0.1259E-04  0 -0.3948E-05
   (  2, 19, 10)  (  2, 19, 10)  (  2, 20, 10)  (  2, 18, 10)  (  2, 20,  9)
  0 -0.1430E-05  1  0.3917E-04  0  0.1007E-04  0  0.2983E-05  0  0.7669E-06
   (  2, 20,  9)  (  2, 17, 37)  (  2,  3, 25)  (  2, 18, 36)  (  2,  4, 24)
  1  0.1817E-05  0  0.8750E-06  1 -0.1865E-05  0  0.2915E-06  1  0.9935E-05
   (  2,  6, 25)  (  2,  6, 25)  (  2,  6, 25)  (  1,  6, 25)  (  1,  6, 25)
  0  0.3422E-05  1 -0.2436E-05  0 -0.8660E-06  1  0.2793E-04  0  0.1052E-04
   (  1,  6, 25)  (  2,  6, 25)  (  2,  6, 25)  (  2,  6, 25)  (  2,  7, 24)
  0  0.2635E-05  0  0.7064E-06  1  0.2117E-05  0  0.8921E-06  1 -0.1355E-05
   (  2,  7, 24)  (  2,  8, 23)  (  2,  7, 25)  (  2,  7, 25)  (  2,  7, 25)
  0 -0.3076E-06  1  0.2948E-04  0  0.1081E-04  0  0.2747E-05  0 -0.7197E-06
   (  2,  7, 25)  (  2,  7, 25)  (  2,  8, 24)  (  2,  6, 26)  (  2,  9, 24)
  1  0.4883E-06
   (  2,  6, 24)



 OUTPUT CONTROL FOR STRESS PERIOD    2   TIME STEP   44
    SAVE HEAD FOR ALL LAYERS
    SAVE DRAWDOWN FOR ALL LAYERS
    SAVE BUDGET
    PRINT BUDGET
 UBDSV1 SAVING "         STORAGE" ON UNIT   9 AT TIME STEP 44, STRESS PERIOD   2
 UBDSV2 SAVING "   CONSTANT HEAD" ON UNIT   9 AT TIME STEP 44, STRESS PERIOD   2
 UBDSV1 SAVING "FLOW RIGHT FACE " ON UNIT   9 AT TIME STEP 44, STRESS PERIOD   2
 UBDSV1 SAVING "FLOW FRONT FACE " ON UNIT   9 AT TIME STEP 44, STRESS PERIOD   2
 UBDSV1 SAVING "FLOW LOWER FACE " ON UNIT   9 AT TIME STEP 44, STRESS PERIOD   2
 UBDSV4 SAVING "           WELLS" ON UNIT   9 AT TIME STEP 44, STRESS PERIOD   2
 UBDSV4 SAVING "   RIVER LEAKAGE" ON UNIT   9 AT TIME STEP 44, STRESS PERIOD   2
 UBDSV3 SAVING "              ET" ON UNIT   9 AT TIME STEP 44, STRESS PERIOD   2
 UBDSV4 SAVING " HEAD DEP BOUNDS" ON UNIT   9 AT TIME STEP 44, STRESS PERIOD   2
 UBDSV3 SAVING "        RECHARGE" ON UNIT   9 AT TIME STEP 44, STRESS PERIOD   2
 SOLVING FOR ZETA FOR LAYER     1 ZONE     2
     2 CALLS TO PCG ROUTINE FOR TIME STEP  44 IN STRESS PERIOD    2
     4 TOTAL ITERATIONS

 MAXIMUM HEAD CHANGE FOR EACH ITERATION (1 INDICATES THE FIRST INNER ITERATION):

    HEAD CHANGE    HEAD CHANGE    HEAD CHANGE    HEAD CHANGE    HEAD CHANGE 
   LAYER,ROW,COL  LAYER,ROW,COL  LAYER,ROW,COL  LAYER,ROW,COL  LAYER,ROW,COL
 ---------------------------------------------------------------------------
  1   34.13      0  0.2383E-01  0  0.3857E-03  1  0.4842E-05
   (  1, 18, 10)  (  1,  8,  3)  (  1,  9,  2)  (  1,  8,  3)

 MAXIMUM RESIDUAL FOR EACH ITERATION (1 INDICATES THE FIRST INNER ITERATION):

    RESIDUAL       RESIDUAL       RESIDUAL       RESIDUAL       RESIDUAL    
   LAYER,ROW,COL  LAYER,ROW,COL  LAYER,ROW,COL  LAYER,ROW,COL  LAYER,ROW,COL
 ---------------------------------------------------------------------------
  1 -0.8751E-05  0 -0.1271E-06  0 -0.1912E-08  1 -0.2617E-10
   (  1,  8,  3)  (  1,  9,  2)  (  1,  8,  3)  (  1,  7,  4)


 SOLVING FOR ZETA FOR LAYER     2 ZONE     2
     2 CALLS TO PCG ROUTINE FOR TIME STEP  44 IN STRESS PERIOD    2
     4 TOTAL ITERATIONS

 MAXIMUM HEAD CHANGE FOR EACH ITERATION (1 INDICATES THE FIRST INNER ITERATION):

    HEAD CHANGE    HEAD CHANGE    HEAD CHANGE    HEAD CHANGE    HEAD CHANGE 
   LAYER,ROW,COL  LAYER,ROW,COL  LAYER,ROW,COL  LAYER,ROW,COL  LAYER,ROW,COL
 ---------------------------------------------------------------------------
  1   6.423      0  0.6850E-01  0  0.5856E-03  1  0.7384E-05
   (  1, 20, 10)  (  1, 19, 11)  (  1,  9,  7)  (  1, 24,  7)

 MAXIMUM RESIDUAL FOR EACH ITERATION (1 INDICATES THE FIRST INNER ITERATION):

    RESIDUAL       RESIDUAL       RESIDUAL       RESIDUAL       RESIDUAL    
   LAYER,ROW,COL  LAYER,ROW,COL  LAYER,ROW,COL  LAYER,ROW,COL  LAYER,ROW,COL
 ---------------------------------------------------------------------------
  1 -0.1995E-04  0 -0.2021E-06  0 -0.2577E-08  1 -0.4159E-10
   (  1, 19, 11)  (  1,  9,  7)  (  1, 24,  7)  (  1,  6,  6)


 UBUDSV SAVING "      ZETASRF  1" ON UNIT170 AT TIME STEP 44, STRESS PERIOD    2


                      VOLUMETRIC SWI ZONE BUDGET FOR ENTIRE MODEL
                     AT END OF TIME STEP   44 IN STRESS PERIOD   2
                                      ZONE     1
  -----------------------------------------------------------------------------------

        CUMULATIVE VOLUMES      L**3       RATES FOR THIS TIME STEP      L**3/T
        ------------------                 ------------------------

              IN:                                      IN:
              ---                                      ---
             BOUNDARIES =   663202944.0000            BOUNDARIES =           0.2090
          CONSTANT HEAD =           0.0000         CONSTANT HEAD =           0.0000
            ZONE CHANGE =   163373744.0000           ZONE CHANGE =       7.5265E-02
       ZONE CHG TIP/TOE =     7449056.5000      ZONE CHG TIP/TOE =       1.2772E-02
            ZONE MIXING =           0.0000           ZONE MIXING =           0.0000

               TOTAL IN =   834025728.0000              TOTAL IN =           0.2970

             OUT:                                     OUT:
             ----                                     ----
             BOUNDARIES =   724683264.0000            BOUNDARIES =           0.2796
          CONSTANT HEAD =           0.0000         CONSTANT HEAD =           0.0000
            ZONE CHANGE =    27528566.0000           ZONE CHANGE =       6.1057E-03
       ZONE CHG TIP/TOE =     6215431.5000      ZONE CHG TIP/TOE =       8.1708E-03
            ZONE MIXING =      621744.8125           ZONE MIXING =       2.4147E-03

              TOTAL OUT =   759049024.0000             TOTAL OUT =           0.2963

               IN - OUT =    74976704.0000              IN - OUT =       6.8808E-04

    PERCENT DISCREPANCY =           9.41     PERCENT DISCREPANCY =           0.23



                      VOLUMETRIC SWI ZONE BUDGET FOR ENTIRE MODEL
                     AT END OF TIME STEP   44 IN STRESS PERIOD   2
                                      ZONE     2
  -----------------------------------------------------------------------------------

        CUMULATIVE VOLUMES      L**3       RATES FOR THIS TIME STEP      L**3/T
        ------------------                 ------------------------

              IN:                                      IN:
              ---                                      ---
             BOUNDARIES =    48613148.0000            BOUNDARIES =           0.1046
          CONSTANT HEAD =           0.0000         CONSTANT HEAD =           0.0000
            ZONE CHANGE =    23793424.0000           ZONE CHANGE =       4.5140E-03
       ZONE CHG TIP/TOE =    11421569.0000      ZONE CHG TIP/TOE =       1.6403E-02
            ZONE MIXING =      621744.8125           ZONE MIXING =       2.4147E-03

               TOTAL IN =    84449888.0000              TOTAL IN =           0.1279

             OUT:                                     OUT:
             ----                                     ----
             BOUNDARIES =    48658564.0000            BOUNDARIES =       8.7146E-02
          CONSTANT HEAD =           0.0000         CONSTANT HEAD =           0.0000
            ZONE CHANGE =    36786204.0000           ZONE CHANGE =       3.9117E-02
       ZONE CHG TIP/TOE =     4471251.5000      ZONE CHG TIP/TOE =       1.1204E-02
            ZONE MIXING =           0.0000           ZONE MIXING =           0.0000

              TOTAL OUT =    89916016.0000             TOTAL OUT =           0.1375

               IN - OUT =    -5466128.0000              IN - OUT =      -9.5290E-03

    PERCENT DISCREPANCY =          -6.27     PERCENT DISCREPANCY =          -7.18


 HEAD WILL BE SAVED ON UNIT   37 AT END OF TIME STEP   44, STRESS PERIOD    2

 DRAWDOWN WILL BE SAVED ON UNIT   38 AT END OF TIME STEP   44, STRESS PERIOD    2
1
  VOLUMETRIC BUDGET FOR ENTIRE MODEL AT END OF TIME STEP   44, STRESS PERIOD   2
  ------------------------------------------------------------------------------

     CUMULATIVE VOLUMES      L**3       RATES FOR THIS TIME STEP      L**3/T
     ------------------                 ------------------------

           IN:                                      IN:
           ---                                      ---
             STORAGE =    61544956.0000               STORAGE =       5.3400E-02
       CONSTANT HEAD =           0.0000         CONSTANT HEAD =           0.0000
               WELLS =           0.0000                 WELLS =           0.0000
       RIVER LEAKAGE =   139170304.0000         RIVER LEAKAGE =       4.1000E-02
                  ET =           0.0000                    ET =           0.0000
     HEAD DEP BOUNDS =    57428484.0000       HEAD DEP BOUNDS =           0.1107
            RECHARGE =   554602432.0000              RECHARGE =           0.1826
          SWIADDTOCH =           0.0000            SWIADDTOCH =           0.0000

            TOTAL IN =   812746176.0000              TOTAL IN =           0.3877

          OUT:                                     OUT:
          ----                                     ----
             STORAGE =       32223.7656               STORAGE =       2.0433E-04
       CONSTANT HEAD =           0.0000         CONSTANT HEAD =           0.0000
               WELLS =   269475136.0000                 WELLS =           0.3820
       RIVER LEAKAGE =    21630804.0000         RIVER LEAKAGE =           0.0000
                  ET =   166413648.0000                    ET =           0.0000
     HEAD DEP BOUNDS =   355207136.0000       HEAD DEP BOUNDS =       5.4987E-03
            RECHARGE =           0.0000              RECHARGE =           0.0000
          SWIADDTOCH =           0.0000            SWIADDTOCH =           0.0000

           TOTAL OUT =   812758912.0000             TOTAL OUT =           0.3877

            IN - OUT =      -12736.0000              IN - OUT =      -1.2517E-06

 PERCENT DISCREPANCY =          -0.00     PERCENT DISCREPANCY =          -0.00






         TIME SUMMARY AT END OF TIME STEP   44 IN STRESS PERIOD    2
                    SECONDS     MINUTES      HOURS       DAYS        YEARS
                    -----------------------------------------------------------
   TIME STEP LENGTH 1.57680E+07 2.62800E+05  4380.0      182.50     0.49966    
 STRESS PERIOD TIME 6.93792E+08 1.15632E+07 1.92720E+05  8030.0      21.985    
         TOTAL TIME 3.84739E+09 6.41232E+07 1.06872E+06  44530.      121.92    
1
 
 SOLVING FOR HEAD 
    10 CALLS TO PCG ROUTINE FOR TIME STEP  45 IN STRESS PERIOD    2
    25 TOTAL ITERATIONS

 MAXIMUM HEAD CHANGE FOR EACH ITERATION (1 INDICATES THE FIRST INNER ITERATION):

    HEAD CHANGE    HEAD CHANGE    HEAD CHANGE    HEAD CHANGE    HEAD CHANGE 
   LAYER,ROW,COL  LAYER,ROW,COL  LAYER,ROW,COL  LAYER,ROW,COL  LAYER,ROW,COL
 ---------------------------------------------------------------------------
  1 -0.4558      0  0.1041      0 -0.2213E-01  0  0.4655E-02  0 -0.1373E-02
   (  1, 15,  7)  (  2, 15,  7)  (  2, 18,  9)  (  1, 20, 11)  (  2, 22, 13)
  0 -0.3891E-03  1  0.1906E-01  0  0.6332E-02  0  0.1435E-02  0  0.3978E-03
   (  1, 35,  8)  (  2, 54, 39)  (  2, 54, 39)  (  2, 54, 39)  (  2, 54, 39)
  1 -0.6916E-02  0 -0.3119E-03  1  0.5016E-02  0  0.2257E-03  1 -0.3781E-02
   (  2, 55, 34)  (  2, 55, 34)  (  2, 55, 34)  (  2, 55, 34)  (  2, 55, 34)
  0 -0.5649E-04  1  0.2774E-02  0  0.4072E-04  1 -0.2035E-02  0 -0.2927E-04
   (  2, 55, 34)  (  2, 55, 34)  (  2, 55, 34)  (  2, 55, 34)  (  2, 55, 34)
  1  0.1488E-02  0  0.2265E-04  1 -0.1090E-02  0 -0.1629E-04  1  0.7955E-03
   (  2, 55, 34)  (  2, 55, 34)  (  2, 55, 34)  (  2, 55, 34)  (  2, 55, 34)

 MAXIMUM RESIDUAL FOR EACH ITERATION (1 INDICATES THE FIRST INNER ITERATION):

    RESIDUAL       RESIDUAL       RESIDUAL       RESIDUAL       RESIDUAL    
   LAYER,ROW,COL  LAYER,ROW,COL  LAYER,ROW,COL  LAYER,ROW,COL  LAYER,ROW,COL
 ---------------------------------------------------------------------------
  1 -0.9409E-03  0  0.1855E-03  0 -0.6462E-04  0 -0.1405E-04  0 -0.4515E-05
   (  2, 15,  7)  (  2, 14,  7)  (  2, 16,  6)  (  2, 16,  6)  (  2, 15,  6)
  0 -0.1374E-05  1  0.1044E-04  0  0.2336E-05  0 -0.7318E-06  0 -0.2289E-06
   (  2, 17, 10)  (  2, 15,  7)  (  2, 12, 21)  (  2, 16,  7)  (  2, 15,  7)
  1 -0.5574E-06  0 -0.1552E-06  1  0.1339E-06  0  0.6812E-07  1 -0.8443E-07
   (  2, 18, 11)  (  2, 55, 32)  (  2, 18, 15)  (  2, 55, 32)  (  2, 52, 38)
  0 -0.4737E-07  1  0.6427E-07  0  0.3873E-07  1 -0.4891E-07  0 -0.2747E-07
   (  2, 52, 38)  (  2, 52, 38)  (  2, 52, 38)  (  2, 52, 38)  (  2, 52, 38)
  1  0.3627E-07  0  0.2170E-07  1 -0.2745E-07  0 -0.1575E-07  1  0.2049E-07
   (  2, 52, 38)  (  2, 52, 38)  (  2, 52, 38)  (  2, 52, 38)  (  2, 52, 38)



 OUTPUT CONTROL FOR STRESS PERIOD    2   TIME STEP   45
    SAVE HEAD FOR ALL LAYERS
    SAVE DRAWDOWN FOR ALL LAYERS
    SAVE BUDGET
    PRINT BUDGET
 UBDSV1 SAVING "         STORAGE" ON UNIT   9 AT TIME STEP 45, STRESS PERIOD   2
 UBDSV2 SAVING "   CONSTANT HEAD" ON UNIT   9 AT TIME STEP 45, STRESS PERIOD   2
 UBDSV1 SAVING "FLOW RIGHT FACE " ON UNIT   9 AT TIME STEP 45, STRESS PERIOD   2
 UBDSV1 SAVING "FLOW FRONT FACE " ON UNIT   9 AT TIME STEP 45, STRESS PERIOD   2
 UBDSV1 SAVING "FLOW LOWER FACE " ON UNIT   9 AT TIME STEP 45, STRESS PERIOD   2
 UBDSV4 SAVING "           WELLS" ON UNIT   9 AT TIME STEP 45, STRESS PERIOD   2
 UBDSV4 SAVING "   RIVER LEAKAGE" ON UNIT   9 AT TIME STEP 45, STRESS PERIOD   2
 UBDSV3 SAVING "              ET" ON UNIT   9 AT TIME STEP 45, STRESS PERIOD   2
 UBDSV4 SAVING " HEAD DEP BOUNDS" ON UNIT   9 AT TIME STEP 45, STRESS PERIOD   2
 UBDSV3 SAVING "        RECHARGE" ON UNIT   9 AT TIME STEP 45, STRESS PERIOD   2
 SOLVING FOR ZETA FOR LAYER     1 ZONE     2
     2 CALLS TO PCG ROUTINE FOR TIME STEP  45 IN STRESS PERIOD    2
     4 TOTAL ITERATIONS

 MAXIMUM HEAD CHANGE FOR EACH ITERATION (1 INDICATES THE FIRST INNER ITERATION):

    HEAD CHANGE    HEAD CHANGE    HEAD CHANGE    HEAD CHANGE    HEAD CHANGE 
   LAYER,ROW,COL  LAYER,ROW,COL  LAYER,ROW,COL  LAYER,ROW,COL  LAYER,ROW,COL
 ---------------------------------------------------------------------------
  1   26.53      0  0.1411      0  0.8967E-03  1  0.9646E-05
   (  1, 20,  9)  (  1, 21,  7)  (  1, 20,  8)  (  1,  8,  3)

 MAXIMUM RESIDUAL FOR EACH ITERATION (1 INDICATES THE FIRST INNER ITERATION):

    RESIDUAL       RESIDUAL       RESIDUAL       RESIDUAL       RESIDUAL    
   LAYER,ROW,COL  LAYER,ROW,COL  LAYER,ROW,COL  LAYER,ROW,COL  LAYER,ROW,COL
 ---------------------------------------------------------------------------
  1 -0.4039E-04  0 -0.3051E-06  0 -0.3731E-08  1 -0.5200E-10
   (  1, 21,  7)  (  1, 20,  8)  (  1,  8,  3)  (  1,  7,  4)


 SOLVING FOR ZETA FOR LAYER     2 ZONE     2
     2 CALLS TO PCG ROUTINE FOR TIME STEP  45 IN STRESS PERIOD    2
     4 TOTAL ITERATIONS

 MAXIMUM HEAD CHANGE FOR EACH ITERATION (1 INDICATES THE FIRST INNER ITERATION):

    HEAD CHANGE    HEAD CHANGE    HEAD CHANGE    HEAD CHANGE    HEAD CHANGE 
   LAYER,ROW,COL  LAYER,ROW,COL  LAYER,ROW,COL  LAYER,ROW,COL  LAYER,ROW,COL
 ---------------------------------------------------------------------------
  1  -4.974      0  0.4554E-01  0  0.5092E-03  1  0.5254E-05
   (  1, 22,  9)  (  1,  9,  6)  (  1,  8,  7)  (  1, 24,  7)

 MAXIMUM RESIDUAL FOR EACH ITERATION (1 INDICATES THE FIRST INNER ITERATION):

    RESIDUAL       RESIDUAL       RESIDUAL       RESIDUAL       RESIDUAL    
   LAYER,ROW,COL  LAYER,ROW,COL  LAYER,ROW,COL  LAYER,ROW,COL  LAYER,ROW,COL
 ---------------------------------------------------------------------------
  1 -0.1397E-04  0 -0.1826E-06  0 -0.1674E-08  1 -0.3444E-10
   (  1,  9,  6)  (  1,  8,  7)  (  1, 24,  7)  (  1, 25,  6)


 UBUDSV SAVING "      ZETASRF  1" ON UNIT170 AT TIME STEP 45, STRESS PERIOD    2


                      VOLUMETRIC SWI ZONE BUDGET FOR ENTIRE MODEL
                     AT END OF TIME STEP   45 IN STRESS PERIOD   2
                                      ZONE     1
  -----------------------------------------------------------------------------------

        CUMULATIVE VOLUMES      L**3       RATES FOR THIS TIME STEP      L**3/T
        ------------------                 ------------------------

              IN:                                      IN:
              ---                                      ---
             BOUNDARIES =   666463680.0000            BOUNDARIES =           0.2068
          CONSTANT HEAD =           0.0000         CONSTANT HEAD =           0.0000
            ZONE CHANGE =   164685264.0000           ZONE CHANGE =       8.3176E-02
       ZONE CHG TIP/TOE =     7533518.0000      ZONE CHG TIP/TOE =       5.3565E-03
            ZONE MIXING =           0.0000           ZONE MIXING =           0.0000

               TOTAL IN =   838682496.0000              TOTAL IN =           0.2953

             OUT:                                     OUT:
             ----                                     ----
             BOUNDARIES =   729774528.0000            BOUNDARIES =           0.3229
          CONSTANT HEAD =           0.0000         CONSTANT HEAD =           0.0000
            ZONE CHANGE =    27618190.0000           ZONE CHANGE =       5.6839E-03
       ZONE CHG TIP/TOE =     6279431.5000      ZONE CHG TIP/TOE =       4.0589E-03
            ZONE MIXING =      621744.8125           ZONE MIXING =           0.0000

              TOTAL OUT =   764293888.0000             TOTAL OUT =           0.3326

               IN - OUT =    74388608.0000              IN - OUT =      -3.7300E-02

    PERCENT DISCREPANCY =           9.28     PERCENT DISCREPANCY =         -11.88



                      VOLUMETRIC SWI ZONE BUDGET FOR ENTIRE MODEL
                     AT END OF TIME STEP   45 IN STRESS PERIOD   2
                                      ZONE     2
  -----------------------------------------------------------------------------------

        CUMULATIVE VOLUMES      L**3       RATES FOR THIS TIME STEP      L**3/T
        ------------------                 ------------------------

              IN:                                      IN:
              ---                                      ---
             BOUNDARIES =    50306928.0000            BOUNDARIES =           0.1074
          CONSTANT HEAD =           0.0000         CONSTANT HEAD =           0.0000
            ZONE CHANGE =    23885304.0000           ZONE CHANGE =       5.8270E-03
       ZONE CHG TIP/TOE =    11966764.0000      ZONE CHG TIP/TOE =       3.4576E-02
            ZONE MIXING =      621744.8125           ZONE MIXING =           0.0000

               TOTAL IN =    86780736.0000              TOTAL IN =           0.1478

             OUT:                                     OUT:
             ----                                     ----
             BOUNDARIES =    49347124.0000            BOUNDARIES =       4.3668E-02
          CONSTANT HEAD =           0.0000         CONSTANT HEAD =           0.0000
            ZONE CHANGE =    37894208.0000           ZONE CHANGE =       7.0269E-02
       ZONE CHG TIP/TOE =     4554542.5000      ZONE CHG TIP/TOE =       5.2823E-03
            ZONE MIXING =           0.0000           ZONE MIXING =           0.0000

              TOTAL OUT =    91795872.0000             TOTAL OUT =           0.1192

               IN - OUT =    -5015136.0000              IN - OUT =       2.8602E-02

    PERCENT DISCREPANCY =          -5.62     PERCENT DISCREPANCY =          21.42


 HEAD WILL BE SAVED ON UNIT   37 AT END OF TIME STEP   45, STRESS PERIOD    2

 DRAWDOWN WILL BE SAVED ON UNIT   38 AT END OF TIME STEP   45, STRESS PERIOD    2
1
  VOLUMETRIC BUDGET FOR ENTIRE MODEL AT END OF TIME STEP   45, STRESS PERIOD   2
  ------------------------------------------------------------------------------

     CUMULATIVE VOLUMES      L**3       RATES FOR THIS TIME STEP      L**3/T
     ------------------                 ------------------------

           IN:                                      IN:
           ---                                      ---
             STORAGE =    62371688.0000               STORAGE =       5.2431E-02
       CONSTANT HEAD =           0.0000         CONSTANT HEAD =           0.0000
               WELLS =           0.0000                 WELLS =           0.0000
       RIVER LEAKAGE =   139816800.0000         RIVER LEAKAGE =       4.1000E-02
                  ET =           0.0000                    ET =           0.0000
     HEAD DEP BOUNDS =    59183540.0000       HEAD DEP BOUNDS =           0.1113
            RECHARGE =   557482432.0000              RECHARGE =           0.1826
          SWIADDTOCH =           0.0000            SWIADDTOCH =           0.0000

            TOTAL IN =   818854464.0000              TOTAL IN =           0.3874

          OUT:                                     OUT:
          ----                                     ----
             STORAGE =       33676.5430               STORAGE =       9.2134E-05
       CONSTANT HEAD =           0.0000         CONSTANT HEAD =           0.0000
               WELLS =   275498496.0000                 WELLS =           0.3820
       RIVER LEAKAGE =    21630804.0000         RIVER LEAKAGE =           0.0000
                  ET =   166413648.0000                    ET =           0.0000
     HEAD DEP BOUNDS =   355290592.0000       HEAD DEP BOUNDS =       5.2922E-03
            RECHARGE =           0.0000              RECHARGE =           0.0000
          SWIADDTOCH =           0.0000            SWIADDTOCH =           0.0000

           TOTAL OUT =   818867200.0000             TOTAL OUT =           0.3874

            IN - OUT =      -12736.0000              IN - OUT =      -5.9605E-08

 PERCENT DISCREPANCY =          -0.00     PERCENT DISCREPANCY =          -0.00






         TIME SUMMARY AT END OF TIME STEP   45 IN STRESS PERIOD    2
                    SECONDS     MINUTES      HOURS       DAYS        YEARS
                    -----------------------------------------------------------
   TIME STEP LENGTH 1.57680E+07 2.62800E+05  4380.0      182.50     0.49966    
 STRESS PERIOD TIME 7.09560E+08 1.18260E+07 1.97100E+05  8212.5      22.485    
         TOTAL TIME 3.86316E+09 6.43860E+07 1.07310E+06  44713.      122.42    
1
 
 SOLVING FOR HEAD 

 CELL CONVERSIONS FOR ITER.=  2  LAYER=  1  STEP= 46  PERIOD=   2   (ROW,COL)
    DRY( 36, 36)   DRY( 48, 22)   
    11 CALLS TO PCG ROUTINE FOR TIME STEP  46 IN STRESS PERIOD    2
    27 TOTAL ITERATIONS

 MAXIMUM HEAD CHANGE FOR EACH ITERATION (1 INDICATES THE FIRST INNER ITERATION):

    HEAD CHANGE    HEAD CHANGE    HEAD CHANGE    HEAD CHANGE    HEAD CHANGE 
   LAYER,ROW,COL  LAYER,ROW,COL  LAYER,ROW,COL  LAYER,ROW,COL  LAYER,ROW,COL
 ---------------------------------------------------------------------------
  1 -0.2402      0 -0.7567E-01  0 -0.2005E-01  0 -0.6002E-02  0 -0.2394E-02
   (  1, 19, 10)  (  2,  9,  8)  (  2, 12,  7)  (  2, 11, 10)  (  2,  7, 11)
  0 -0.5535E-03  1 -0.7636E-01  0 -0.7601E-02  0  0.1554E-02  0  0.4933E-03
   (  2,  5, 13)  (  2, 48, 22)  (  2, 47, 24)  (  2, 54, 39)  (  2, 54, 39)
  1 -0.6649E-02  0 -0.4280E-03  1  0.4148E-02  0  0.2915E-03  1 -0.3462E-02
   (  2, 54, 39)  (  2, 54, 39)  (  2, 55, 34)  (  2, 55, 34)  (  2, 55, 34)
  0 -0.8363E-04  1  0.2826E-02  0  0.4121E-04  1 -0.2298E-02  0 -0.2907E-04
   (  2, 55, 34)  (  2, 55, 34)  (  2, 55, 34)  (  2, 55, 34)  (  2, 55, 34)
  1  0.1863E-02  0  0.2405E-04  1 -0.1511E-02  0 -0.1928E-04  1  0.1224E-02
   (  2, 55, 34)  (  2, 55, 34)  (  2, 55, 34)  (  2, 55, 34)  (  2, 55, 34)
  0  0.1587E-04  1 -0.9928E-03
   (  2, 55, 34)  (  2, 55, 34)

 MAXIMUM RESIDUAL FOR EACH ITERATION (1 INDICATES THE FIRST INNER ITERATION):

    RESIDUAL       RESIDUAL       RESIDUAL       RESIDUAL       RESIDUAL    
   LAYER,ROW,COL  LAYER,ROW,COL  LAYER,ROW,COL  LAYER,ROW,COL  LAYER,ROW,COL
 ---------------------------------------------------------------------------
  1  0.5303E-03  0  0.1331E-03  0 -0.5032E-04  0  0.1381E-04  0  0.4137E-05
   (  2, 21,  9)  (  2, 21,  9)  (  1, 14,  7)  (  2, 14,  7)  (  1, 18, 11)
  0  0.1713E-05  1  0.4458E-04  0  0.1365E-04  0  0.3385E-05  0  0.9463E-06
   (  2, 19, 10)  (  2, 47, 23)  (  2, 47, 23)  (  2, 37, 35)  (  2, 46, 24)
  1 -0.6820E-06  0 -0.2049E-06  1 -0.3385E-06  0  0.9590E-07  1 -0.1067E-06
   (  2,  5, 11)  (  2, 55, 32)  (  2,  5, 11)  (  2, 55, 32)  (  2,  5, 11)
  0 -0.4126E-07  1 -0.6136E-07  0  0.3431E-07  1 -0.4660E-07  0 -0.2613E-07
   (  2, 52, 38)  (  2,  5, 11)  (  2, 52, 38)  (  2, 53, 34)  (  2, 52, 38)
  1  0.3610E-07  0  0.2164E-07  1 -0.2947E-07  0 -0.1704E-07  1  0.2352E-07
   (  2, 53, 34)  (  2, 52, 38)  (  2, 53, 34)  (  2, 52, 38)  (  2, 52, 38)
  0  0.1405E-07  1 -0.1923E-07
   (  2, 52, 38)  (  2, 53, 34)



 OUTPUT CONTROL FOR STRESS PERIOD    2   TIME STEP   46
    SAVE HEAD FOR ALL LAYERS
    SAVE DRAWDOWN FOR ALL LAYERS
    SAVE BUDGET
    PRINT BUDGET
 UBDSV1 SAVING "         STORAGE" ON UNIT   9 AT TIME STEP 46, STRESS PERIOD   2
 UBDSV2 SAVING "   CONSTANT HEAD" ON UNIT   9 AT TIME STEP 46, STRESS PERIOD   2
 UBDSV1 SAVING "FLOW RIGHT FACE " ON UNIT   9 AT TIME STEP 46, STRESS PERIOD   2
 UBDSV1 SAVING "FLOW FRONT FACE " ON UNIT   9 AT TIME STEP 46, STRESS PERIOD   2
 UBDSV1 SAVING "FLOW LOWER FACE " ON UNIT   9 AT TIME STEP 46, STRESS PERIOD   2
 UBDSV4 SAVING "           WELLS" ON UNIT   9 AT TIME STEP 46, STRESS PERIOD   2
 UBDSV4 SAVING "   RIVER LEAKAGE" ON UNIT   9 AT TIME STEP 46, STRESS PERIOD   2
 UBDSV3 SAVING "              ET" ON UNIT   9 AT TIME STEP 46, STRESS PERIOD   2
 UBDSV4 SAVING " HEAD DEP BOUNDS" ON UNIT   9 AT TIME STEP 46, STRESS PERIOD   2
 UBDSV3 SAVING "        RECHARGE" ON UNIT   9 AT TIME STEP 46, STRESS PERIOD   2
 SOLVING FOR ZETA FOR LAYER     1 ZONE     2
     2 CALLS TO PCG ROUTINE FOR TIME STEP  46 IN STRESS PERIOD    2
     4 TOTAL ITERATIONS

 MAXIMUM HEAD CHANGE FOR EACH ITERATION (1 INDICATES THE FIRST INNER ITERATION):

    HEAD CHANGE    HEAD CHANGE    HEAD CHANGE    HEAD CHANGE    HEAD CHANGE 
   LAYER,ROW,COL  LAYER,ROW,COL  LAYER,ROW,COL  LAYER,ROW,COL  LAYER,ROW,COL
 ---------------------------------------------------------------------------
  1   12.06      0  0.7182E-01  0  0.6658E-03  1  0.3918E-05
   (  1, 16,  7)  (  1, 24,  5)  (  1, 23,  6)  (  1, 22,  7)

 MAXIMUM RESIDUAL FOR EACH ITERATION (1 INDICATES THE FIRST INNER ITERATION):

    RESIDUAL       RESIDUAL       RESIDUAL       RESIDUAL       RESIDUAL    
   LAYER,ROW,COL  LAYER,ROW,COL  LAYER,ROW,COL  LAYER,ROW,COL  LAYER,ROW,COL
 ---------------------------------------------------------------------------
  1 -0.2406E-04  0 -0.2094E-06  0 -0.1085E-08  1 -0.1382E-10
   (  1, 24,  5)  (  1, 25,  4)  (  1, 22,  7)  (  1, 22,  3)


 SOLVING FOR ZETA FOR LAYER     2 ZONE     2
     2 CALLS TO PCG ROUTINE FOR TIME STEP  46 IN STRESS PERIOD    2
     4 TOTAL ITERATIONS

 MAXIMUM HEAD CHANGE FOR EACH ITERATION (1 INDICATES THE FIRST INNER ITERATION):

    HEAD CHANGE    HEAD CHANGE    HEAD CHANGE    HEAD CHANGE    HEAD CHANGE 
   LAYER,ROW,COL  LAYER,ROW,COL  LAYER,ROW,COL  LAYER,ROW,COL  LAYER,ROW,COL
 ---------------------------------------------------------------------------
  1   4.569      0  0.4532E-01  0  0.6424E-03  1  0.7833E-05
   (  1, 13,  9)  (  1, 11,  7)  (  1, 24,  7)  (  1, 23,  8)

 MAXIMUM RESIDUAL FOR EACH ITERATION (1 INDICATES THE FIRST INNER ITERATION):

    RESIDUAL       RESIDUAL       RESIDUAL       RESIDUAL       RESIDUAL    
   LAYER,ROW,COL  LAYER,ROW,COL  LAYER,ROW,COL  LAYER,ROW,COL  LAYER,ROW,COL
 ---------------------------------------------------------------------------
  1 -0.1426E-04  0 -0.2265E-06  0 -0.2408E-08  1 -0.8660E-10
   (  1, 11,  7)  (  1, 24,  7)  (  1, 23,  8)  (  1, 24,  7)


 UBUDSV SAVING "      ZETASRF  1" ON UNIT170 AT TIME STEP 46, STRESS PERIOD    2


                      VOLUMETRIC SWI ZONE BUDGET FOR ENTIRE MODEL
                     AT END OF TIME STEP   46 IN STRESS PERIOD   2
                                      ZONE     1
  -----------------------------------------------------------------------------------

        CUMULATIVE VOLUMES      L**3       RATES FOR THIS TIME STEP      L**3/T
        ------------------                 ------------------------

              IN:                                      IN:
              ---                                      ---
             BOUNDARIES =   669719808.0000            BOUNDARIES =           0.2065
          CONSTANT HEAD =           0.0000         CONSTANT HEAD =           0.0000
            ZONE CHANGE =   165868528.0000           ZONE CHANGE =       7.5042E-02
       ZONE CHG TIP/TOE =     7625953.0000      ZONE CHG TIP/TOE =       5.8622E-03
            ZONE MIXING =           0.0000           ZONE MIXING =           0.0000

               TOTAL IN =   843214272.0000              TOTAL IN =           0.2874

             OUT:                                     OUT:
             ----                                     ----
             BOUNDARIES =   734177088.0000            BOUNDARIES =           0.2792
          CONSTANT HEAD =           0.0000         CONSTANT HEAD =           0.0000
            ZONE CHANGE =    27799800.0000           ZONE CHANGE =       1.1518E-02
       ZONE CHG TIP/TOE =     6348296.5000      ZONE CHG TIP/TOE =       4.3674E-03
            ZONE MIXING =      621744.8125           ZONE MIXING =           0.0000

              TOTAL OUT =   768946944.0000             TOTAL OUT =           0.2951

               IN - OUT =    74267328.0000              IN - OUT =      -7.6895E-03

    PERCENT DISCREPANCY =           9.21     PERCENT DISCREPANCY =          -2.64



                      VOLUMETRIC SWI ZONE BUDGET FOR ENTIRE MODEL
                     AT END OF TIME STEP   46 IN STRESS PERIOD   2
                                      ZONE     2
  -----------------------------------------------------------------------------------

        CUMULATIVE VOLUMES      L**3       RATES FOR THIS TIME STEP      L**3/T
        ------------------                 ------------------------

              IN:                                      IN:
              ---                                      ---
             BOUNDARIES =    52014380.0000            BOUNDARIES =           0.1083
          CONSTANT HEAD =           0.0000         CONSTANT HEAD =           0.0000
            ZONE CHANGE =    24021334.0000           ZONE CHANGE =       8.6269E-03
       ZONE CHG TIP/TOE =    12112931.0000      ZONE CHG TIP/TOE =       9.2699E-03
            ZONE MIXING =      621744.8125           ZONE MIXING =           0.0000

               TOTAL IN =    88770384.0000              TOTAL IN =           0.1262

             OUT:                                     OUT:
             ----                                     ----
             BOUNDARIES =    50721244.0000            BOUNDARIES =       8.7146E-02
          CONSTANT HEAD =           0.0000         CONSTANT HEAD =           0.0000
            ZONE CHANGE =    38483404.0000           ZONE CHANGE =       3.7367E-02
       ZONE CHG TIP/TOE =     4594760.5000      ZONE CHG TIP/TOE =       2.5506E-03
            ZONE MIXING =           0.0000           ZONE MIXING =           0.0000

              TOTAL OUT =    93799408.0000             TOTAL OUT =           0.1271

               IN - OUT =    -5029024.0000              IN - OUT =      -8.8046E-04

    PERCENT DISCREPANCY =          -5.51     PERCENT DISCREPANCY =          -0.70


 HEAD WILL BE SAVED ON UNIT   37 AT END OF TIME STEP   46, STRESS PERIOD    2

 DRAWDOWN WILL BE SAVED ON UNIT   38 AT END OF TIME STEP   46, STRESS PERIOD    2
1
  VOLUMETRIC BUDGET FOR ENTIRE MODEL AT END OF TIME STEP   46, STRESS PERIOD   2
  ------------------------------------------------------------------------------

     CUMULATIVE VOLUMES      L**3       RATES FOR THIS TIME STEP      L**3/T
     ------------------                 ------------------------

           IN:                                      IN:
           ---                                      ---
             STORAGE =    63187240.0000               STORAGE =       5.1722E-02
       CONSTANT HEAD =           0.0000         CONSTANT HEAD =           0.0000
               WELLS =           0.0000                 WELLS =           0.0000
       RIVER LEAKAGE =   140463296.0000         RIVER LEAKAGE =       4.1000E-02
                  ET =           0.0000                    ET =           0.0000
     HEAD DEP BOUNDS =    60953616.0000       HEAD DEP BOUNDS =           0.1123
            RECHARGE =   560356416.0000              RECHARGE =           0.1823
          SWIADDTOCH =           0.0000            SWIADDTOCH =           0.0000

            TOTAL IN =   824960576.0000              TOTAL IN =           0.3872

          OUT:                                     OUT:
          ----                                     ----
             STORAGE =       36086.3945               STORAGE =       1.5283E-04
       CONSTANT HEAD =           0.0000         CONSTANT HEAD =           0.0000
               WELLS =   281521856.0000                 WELLS =           0.3820
       RIVER LEAKAGE =    21630804.0000         RIVER LEAKAGE =           0.0000
                  ET =   166413648.0000                    ET =           0.0000
     HEAD DEP BOUNDS =   355370912.0000       HEAD DEP BOUNDS =       5.0946E-03
            RECHARGE =           0.0000              RECHARGE =           0.0000
          SWIADDTOCH =           0.0000            SWIADDTOCH =           0.0000

           TOTAL OUT =   824973312.0000             TOTAL OUT =           0.3872

            IN - OUT =      -12736.0000              IN - OUT =      -2.9802E-08

 PERCENT DISCREPANCY =          -0.00     PERCENT DISCREPANCY =          -0.00






         TIME SUMMARY AT END OF TIME STEP   46 IN STRESS PERIOD    2
                    SECONDS     MINUTES      HOURS       DAYS        YEARS
                    -----------------------------------------------------------
   TIME STEP LENGTH 1.57680E+07 2.62800E+05  4380.0      182.50     0.49966    
 STRESS PERIOD TIME 7.25328E+08 1.20888E+07 2.01480E+05  8395.0      22.984    
         TOTAL TIME 3.87893E+09 6.46488E+07 1.07748E+06  44895.      122.92    
1
 
 SOLVING FOR HEAD 

 CELL CONVERSIONS FOR ITER.=  2  LAYER=  1  STEP= 47  PERIOD=   2   (ROW,COL)
    DRY( 20, 37)   DRY( 34, 33)   DRY( 44, 28)   
    14 CALLS TO PCG ROUTINE FOR TIME STEP  47 IN STRESS PERIOD    2
    33 TOTAL ITERATIONS

 MAXIMUM HEAD CHANGE FOR EACH ITERATION (1 INDICATES THE FIRST INNER ITERATION):

    HEAD CHANGE    HEAD CHANGE    HEAD CHANGE    HEAD CHANGE    HEAD CHANGE 
   LAYER,ROW,COL  LAYER,ROW,COL  LAYER,ROW,COL  LAYER,ROW,COL  LAYER,ROW,COL
 ---------------------------------------------------------------------------
  1 -0.1810      0  0.5940E-01  0  0.1347E-01  0 -0.5537E-02  0 -0.1138E-02
   (  2, 14,  9)  (  2, 14,  9)  (  1, 15,  8)  (  2, 16,  8)  (  2, 34,  9)
  0 -0.4510E-03  1 -0.3599E-01  0  0.7138E-02  0  0.1686E-02  0  0.4819E-03
   (  1, 35,  8)  (  2, 20, 37)  (  2,  6, 31)  (  2, 54, 39)  (  2, 54, 39)
  1 -0.7527E-02  0 -0.3797E-03  1  0.2927E-02  0  0.2082E-03  1 -0.2629E-02
   (  2, 57, 31)  (  2, 54, 39)  (  2, 55, 34)  (  2, 55, 34)  (  2, 55, 34)
  0 -0.8275E-04  1  0.2350E-02  0  0.3493E-04  1 -0.2095E-02  0 -0.2281E-04
   (  2, 55, 34)  (  2, 55, 34)  (  2, 55, 34)  (  2, 55, 34)  (  2, 55, 34)
  1  0.1863E-02  0  0.2037E-04  1 -0.1657E-02  0 -0.1813E-04  1  0.1471E-02
   (  2, 55, 34)  (  2, 55, 34)  (  2, 55, 34)  (  2, 55, 34)  (  2, 55, 34)
  0  0.1635E-04  1 -0.1306E-02  0 -0.1444E-04  1  0.1159E-02  0  0.1287E-04
   (  2, 55, 34)  (  2, 55, 34)  (  2, 55, 34)  (  2, 55, 34)  (  2, 55, 34)
  1 -0.1031E-02  0 -0.1135E-04  1  0.9166E-03
   (  2, 55, 34)  (  2, 55, 34)  (  2, 55, 34)

 MAXIMUM RESIDUAL FOR EACH ITERATION (1 INDICATES THE FIRST INNER ITERATION):

    RESIDUAL       RESIDUAL       RESIDUAL       RESIDUAL       RESIDUAL    
   LAYER,ROW,COL  LAYER,ROW,COL  LAYER,ROW,COL  LAYER,ROW,COL  LAYER,ROW,COL
 ---------------------------------------------------------------------------
  1 -0.5019E-03  0  0.9340E-04  0  0.3252E-04  0 -0.9023E-05  0 -0.3379E-05
   (  2, 14,  9)  (  2, 14,  8)  (  2, 14,  8)  (  2, 21,  9)  (  2, 19, 10)
  0 -0.1038E-05  1  0.2397E-04  0  0.8565E-05  0  0.2174E-05  0  0.6392E-06
   (  2, 19, 10)  (  2, 44, 28)  (  2, 33, 34)  (  2, 43, 29)  (  2, 32, 35)
  1 -0.6019E-06  0 -0.2191E-06  1 -0.3397E-06  0  0.1206E-06  1 -0.1032E-06
   (  2, 17, 11)  (  2, 55, 32)  (  2,  5, 11)  (  2, 55, 32)  (  2,  5, 11)
  0 -0.4398E-07  1 -0.5325E-07  0  0.2527E-07  1 -0.3962E-07  0 -0.1984E-07
   (  2, 55, 32)  (  2,  5, 11)  (  2, 52, 38)  (  2, 53, 34)  (  2, 52, 38)
  1  0.3274E-07  0  0.1769E-07  1 -0.2920E-07  0 -0.1475E-07  1  0.2537E-07
   (  2, 53, 34)  (  2, 52, 38)  (  2, 53, 34)  (  2, 52, 38)  (  2, 53, 34)
  0  0.1313E-07  1 -0.2275E-07  0 -0.1138E-07  1  0.1998E-07  0  0.1026E-07
   (  2, 52, 38)  (  2, 53, 34)  (  2, 56, 32)  (  2, 53, 34)  (  2, 56, 32)
  1 -0.1785E-07  0 -0.9026E-08  1  0.1576E-07
   (  2, 53, 34)  (  2, 56, 32)  (  2, 53, 34)



 OUTPUT CONTROL FOR STRESS PERIOD    2   TIME STEP   47
    SAVE HEAD FOR ALL LAYERS
    SAVE DRAWDOWN FOR ALL LAYERS
    SAVE BUDGET
    PRINT BUDGET
 UBDSV1 SAVING "         STORAGE" ON UNIT   9 AT TIME STEP 47, STRESS PERIOD   2
 UBDSV2 SAVING "   CONSTANT HEAD" ON UNIT   9 AT TIME STEP 47, STRESS PERIOD   2
 UBDSV1 SAVING "FLOW RIGHT FACE " ON UNIT   9 AT TIME STEP 47, STRESS PERIOD   2
 UBDSV1 SAVING "FLOW FRONT FACE " ON UNIT   9 AT TIME STEP 47, STRESS PERIOD   2
 UBDSV1 SAVING "FLOW LOWER FACE " ON UNIT   9 AT TIME STEP 47, STRESS PERIOD   2
 UBDSV4 SAVING "           WELLS" ON UNIT   9 AT TIME STEP 47, STRESS PERIOD   2
 UBDSV4 SAVING "   RIVER LEAKAGE" ON UNIT   9 AT TIME STEP 47, STRESS PERIOD   2
 UBDSV3 SAVING "              ET" ON UNIT   9 AT TIME STEP 47, STRESS PERIOD   2
 UBDSV4 SAVING " HEAD DEP BOUNDS" ON UNIT   9 AT TIME STEP 47, STRESS PERIOD   2
 UBDSV3 SAVING "        RECHARGE" ON UNIT   9 AT TIME STEP 47, STRESS PERIOD   2
 SOLVING FOR ZETA FOR LAYER     1 ZONE     2
     2 CALLS TO PCG ROUTINE FOR TIME STEP  47 IN STRESS PERIOD    2
     4 TOTAL ITERATIONS

 MAXIMUM HEAD CHANGE FOR EACH ITERATION (1 INDICATES THE FIRST INNER ITERATION):

    HEAD CHANGE    HEAD CHANGE    HEAD CHANGE    HEAD CHANGE    HEAD CHANGE 
   LAYER,ROW,COL  LAYER,ROW,COL  LAYER,ROW,COL  LAYER,ROW,COL  LAYER,ROW,COL
 ---------------------------------------------------------------------------
  1   34.10      0  0.6922E-01  0  0.8087E-03  1  0.6542E-05
   (  1, 18, 10)  (  1, 15,  7)  (  1, 23,  6)  (  1, 24,  5)

 MAXIMUM RESIDUAL FOR EACH ITERATION (1 INDICATES THE FIRST INNER ITERATION):

    RESIDUAL       RESIDUAL       RESIDUAL       RESIDUAL       RESIDUAL    
   LAYER,ROW,COL  LAYER,ROW,COL  LAYER,ROW,COL  LAYER,ROW,COL  LAYER,ROW,COL
 ---------------------------------------------------------------------------
  1 -0.2197E-04  0 -0.2429E-06  0 -0.2126E-08  1 -0.2530E-10
   (  1, 24,  5)  (  1, 23,  6)  (  1, 24,  5)  (  1, 23,  6)


 SOLVING FOR ZETA FOR LAYER     2 ZONE     2
     2 CALLS TO PCG ROUTINE FOR TIME STEP  47 IN STRESS PERIOD    2
     4 TOTAL ITERATIONS

 MAXIMUM HEAD CHANGE FOR EACH ITERATION (1 INDICATES THE FIRST INNER ITERATION):

    HEAD CHANGE    HEAD CHANGE    HEAD CHANGE    HEAD CHANGE    HEAD CHANGE 
   LAYER,ROW,COL  LAYER,ROW,COL  LAYER,ROW,COL  LAYER,ROW,COL  LAYER,ROW,COL
 ---------------------------------------------------------------------------
  1   7.337      0  0.4745E-01  0  0.6567E-03  1 -0.6519E-05
   (  1, 13,  9)  (  1, 11,  7)  (  1,  8,  7)  (  1, 10,  7)

 MAXIMUM RESIDUAL FOR EACH ITERATION (1 INDICATES THE FIRST INNER ITERATION):

    RESIDUAL       RESIDUAL       RESIDUAL       RESIDUAL       RESIDUAL    
   LAYER,ROW,COL  LAYER,ROW,COL  LAYER,ROW,COL  LAYER,ROW,COL  LAYER,ROW,COL
 ---------------------------------------------------------------------------
  1 -0.1491E-04  0 -0.2263E-06  0  0.2408E-08  1 -0.2952E-10
   (  1, 11,  7)  (  1,  8,  7)  (  1, 10,  7)  (  1, 27,  5)


 UBUDSV SAVING "      ZETASRF  1" ON UNIT170 AT TIME STEP 47, STRESS PERIOD    2


                      VOLUMETRIC SWI ZONE BUDGET FOR ENTIRE MODEL
                     AT END OF TIME STEP   47 IN STRESS PERIOD   2
                                      ZONE     1
  -----------------------------------------------------------------------------------

        CUMULATIVE VOLUMES      L**3       RATES FOR THIS TIME STEP      L**3/T
        ------------------                 ------------------------

              IN:                                      IN:
              ---                                      ---
             BOUNDARIES =   672968576.0000            BOUNDARIES =           0.2060
          CONSTANT HEAD =           0.0000         CONSTANT HEAD =           0.0000
            ZONE CHANGE =   167069376.0000           ZONE CHANGE =       7.6157E-02
       ZONE CHG TIP/TOE =     7711555.5000      ZONE CHG TIP/TOE =       5.4289E-03
            ZONE MIXING =           0.0000           ZONE MIXING =           0.0000

               TOTAL IN =   847749504.0000              TOTAL IN =           0.2876

             OUT:                                     OUT:
             ----                                     ----
             BOUNDARIES =   738728128.0000            BOUNDARIES =           0.2886
          CONSTANT HEAD =           0.0000         CONSTANT HEAD =           0.0000
            ZONE CHANGE =    27894670.0000           ZONE CHANGE =       6.0166E-03
       ZONE CHG TIP/TOE =     6407904.0000      ZONE CHG TIP/TOE =       3.7803E-03
            ZONE MIXING =      621744.8125           ZONE MIXING =           0.0000

              TOTAL OUT =   773652480.0000             TOTAL OUT =           0.2984

               IN - OUT =    74097024.0000              IN - OUT =      -1.0797E-02

    PERCENT DISCREPANCY =           9.14     PERCENT DISCREPANCY =          -3.68



                      VOLUMETRIC SWI ZONE BUDGET FOR ENTIRE MODEL
                     AT END OF TIME STEP   47 IN STRESS PERIOD   2
                                      ZONE     2
  -----------------------------------------------------------------------------------

        CUMULATIVE VOLUMES      L**3       RATES FOR THIS TIME STEP      L**3/T
        ------------------                 ------------------------

              IN:                                      IN:
              ---                                      ---
             BOUNDARIES =    53726580.0000            BOUNDARIES =           0.1086
          CONSTANT HEAD =           0.0000         CONSTANT HEAD =           0.0000
            ZONE CHANGE =    24102824.0000           ZONE CHANGE =       5.1680E-03
       ZONE CHG TIP/TOE =    12346612.0000      ZONE CHG TIP/TOE =       1.4820E-02
            ZONE MIXING =      621744.8125           ZONE MIXING =           0.0000

               TOTAL IN =    90797760.0000              TOTAL IN =           0.1286

             OUT:                                     OUT:
             ----                                     ----
             BOUNDARIES =    51943684.0000            BOUNDARIES =       7.7527E-02
          CONSTANT HEAD =           0.0000         CONSTANT HEAD =           0.0000
            ZONE CHANGE =    39183800.0000           ZONE CHANGE =       4.4419E-02
       ZONE CHG TIP/TOE =     4664074.5000      ZONE CHG TIP/TOE =       4.3959E-03
            ZONE MIXING =           0.0000           ZONE MIXING =           0.0000

              TOTAL OUT =    95791560.0000             TOTAL OUT =           0.1263

               IN - OUT =    -4993800.0000              IN - OUT =       2.2339E-03

    PERCENT DISCREPANCY =          -5.35     PERCENT DISCREPANCY =           1.75


 HEAD WILL BE SAVED ON UNIT   37 AT END OF TIME STEP   47, STRESS PERIOD    2

 DRAWDOWN WILL BE SAVED ON UNIT   38 AT END OF TIME STEP   47, STRESS PERIOD    2
1
  VOLUMETRIC BUDGET FOR ENTIRE MODEL AT END OF TIME STEP   47, STRESS PERIOD   2
  ------------------------------------------------------------------------------

     CUMULATIVE VOLUMES      L**3       RATES FOR THIS TIME STEP      L**3/T
     ------------------                 ------------------------

           IN:                                      IN:
           ---                                      ---
             STORAGE =    64001704.0000               STORAGE =       5.1653E-02
       CONSTANT HEAD =           0.0000         CONSTANT HEAD =           0.0000
               WELLS =           0.0000                 WELLS =           0.0000
       RIVER LEAKAGE =   141109792.0000         RIVER LEAKAGE =       4.1000E-02
                  ET =           0.0000                    ET =           0.0000
     HEAD DEP BOUNDS =    62730128.0000       HEAD DEP BOUNDS =           0.1127
            RECHARGE =   563221440.0000              RECHARGE =           0.1817
          SWIADDTOCH =           0.0000            SWIADDTOCH =           0.0000

            TOTAL IN =   831063040.0000              TOTAL IN =           0.3870

          OUT:                                     OUT:
          ----                                     ----
             STORAGE =       38100.0547               STORAGE =       1.2771E-04
       CONSTANT HEAD =           0.0000         CONSTANT HEAD =           0.0000
               WELLS =   287545216.0000                 WELLS =           0.3820
       RIVER LEAKAGE =    21630804.0000         RIVER LEAKAGE =           0.0000
                  ET =   166413648.0000                    ET =           0.0000
     HEAD DEP BOUNDS =   355448000.0000       HEAD DEP BOUNDS =       4.8880E-03
            RECHARGE =           0.0000              RECHARGE =           0.0000
          SWIADDTOCH =           0.0000            SWIADDTOCH =           0.0000

           TOTAL OUT =   831075776.0000             TOTAL OUT =           0.3870

            IN - OUT =      -12736.0000              IN - OUT =      -2.9802E-08

 PERCENT DISCREPANCY =          -0.00     PERCENT DISCREPANCY =          -0.00






         TIME SUMMARY AT END OF TIME STEP   47 IN STRESS PERIOD    2
                    SECONDS     MINUTES      HOURS       DAYS        YEARS
                    -----------------------------------------------------------
   TIME STEP LENGTH 1.57680E+07 2.62800E+05  4380.0      182.50     0.49966    
 STRESS PERIOD TIME 7.41096E+08 1.23516E+07 2.05860E+05  8577.5      23.484    
         TOTAL TIME 3.89470E+09 6.49117E+07 1.08186E+06  45078.      123.42    
1
 
 SOLVING FOR HEAD 

 CELL CONVERSIONS FOR ITER.=  2  LAYER=  1  STEP= 48  PERIOD=   2   (ROW,COL)
    DRY( 20, 38)   DRY( 26, 37)   DRY( 44, 27)   DRY( 45, 21)   
    26 CALLS TO PCG ROUTINE FOR TIME STEP  48 IN STRESS PERIOD    2
    58 TOTAL ITERATIONS

 MAXIMUM HEAD CHANGE FOR EACH ITERATION (1 INDICATES THE FIRST INNER ITERATION):

    HEAD CHANGE    HEAD CHANGE    HEAD CHANGE    HEAD CHANGE    HEAD CHANGE 
   LAYER,ROW,COL  LAYER,ROW,COL  LAYER,ROW,COL  LAYER,ROW,COL  LAYER,ROW,COL
 ---------------------------------------------------------------------------
  1 -0.2231      0  0.6368E-01  0 -0.1577E-01  0 -0.4501E-02  0  0.1225E-02
   (  1, 14,  8)  (  1, 14,  9)  (  2,  9,  8)  (  2,  6,  9)  (  2,  6,  9)
  0  0.3637E-03  1  0.4905      0  0.5900E-01  0  0.1055E-01  0  0.2302E-02
   (  2,  5, 12)  (  2, 26, 37)  (  2, 28, 36)  (  2, 31, 33)  (  2, 33, 31)
  0  0.4963E-03  1 -0.8718E-02  0  0.6010E-03  1  0.3200E-02  0  0.2545E-03
   (  2, 34, 28)  (  2,  6, 31)  (  2, 56, 33)  (  2, 57, 31)  (  2, 57, 31)
  1 -0.2321E-02  0 -0.9013E-04  1  0.2231E-02  0  0.4329E-04  1 -0.2154E-02
   (  2, 55, 34)  (  2, 55, 34)  (  2, 55, 34)  (  2, 55, 34)  (  2, 55, 34)
  0 -0.2164E-04  1  0.2070E-02  0  0.1965E-04  1 -0.1988E-02  0 -0.1915E-04
   (  2, 55, 34)  (  2, 55, 34)  (  2, 55, 34)  (  2, 55, 34)  (  2, 55, 34)
  1  0.1909E-02  0  0.1860E-04  1 -0.1833E-02  0 -0.1793E-04  1  0.1758E-02
   (  2, 55, 34)  (  2, 55, 34)  (  2, 55, 34)  (  2, 55, 34)  (  2, 55, 34)
  0  0.1724E-04  1 -0.1688E-02  0 -0.1648E-04  1  0.1621E-02  0  0.1581E-04
   (  2, 55, 34)  (  2, 55, 34)  (  2, 55, 34)  (  2, 55, 34)  (  2, 55, 34)
  1 -0.1556E-02  0 -0.1510E-04  1  0.1494E-02  0  0.1448E-04  1 -0.1434E-02
   (  2, 55, 34)  (  2, 55, 34)  (  2, 55, 34)  (  2, 55, 34)  (  2, 55, 34)
  0 -0.1383E-04  1  0.1376E-02  0  0.1326E-04  1 -0.1320E-02  0 -0.1267E-04
   (  2, 55, 34)  (  2, 55, 34)  (  2, 55, 34)  (  2, 55, 34)  (  2, 55, 34)
  1  0.1266E-02  0  0.1214E-04  1 -0.1215E-02  0 -0.1161E-04  1  0.1168E-02
   (  2, 55, 34)  (  2, 55, 34)  (  2, 55, 34)  (  2, 55, 34)  (  2, 55, 34)
  0  0.1115E-04  1 -0.1121E-02  0 -0.1067E-04  1  0.1076E-02  0  0.1024E-04
   (  2, 55, 34)  (  2, 55, 34)  (  2, 55, 34)  (  2, 55, 34)  (  2, 55, 34)
  1 -0.1032E-02  0 -0.9803E-05  1  0.9904E-03
   (  2, 55, 34)  (  2, 55, 34)  (  2, 55, 34)

 MAXIMUM RESIDUAL FOR EACH ITERATION (1 INDICATES THE FIRST INNER ITERATION):

    RESIDUAL       RESIDUAL       RESIDUAL       RESIDUAL       RESIDUAL    
   LAYER,ROW,COL  LAYER,ROW,COL  LAYER,ROW,COL  LAYER,ROW,COL  LAYER,ROW,COL
 ---------------------------------------------------------------------------
  1  0.5203E-03  0 -0.1406E-03  0 -0.4541E-04  0 -0.1010E-04  0  0.2746E-05
   (  2, 13,  8)  (  1, 14,  8)  (  2, 20,  8)  (  2, 13,  9)  (  2, 13, 10)
  0  0.8921E-06  1 -0.3181E-03  0 -0.1183E-03  0 -0.3241E-04  0  0.6947E-05
   (  2, 18, 10)  (  2, 26, 37)  (  2, 27, 36)  (  2, 27, 36)  (  1, 27, 36)
  0  0.2029E-05  1  0.1049E-05  0  0.3101E-06  1  0.3328E-06  0  0.1389E-06
   (  1, 27, 36)  (  2, 26, 36)  (  2, 27, 32)  (  2,  5, 12)  (  2, 55, 32)
  1  0.9298E-07  0 -0.5800E-07  1  0.5548E-07  0  0.2214E-07  1 -0.3865E-07
   (  2,  5, 12)  (  2, 55, 32)  (  2,  5, 12)  (  2, 55, 32)  (  2, 53, 34)
  0 -0.1728E-07  1  0.3378E-07  0  0.1674E-07  1 -0.3233E-07  0 -0.1566E-07
   (  2, 52, 38)  (  2, 53, 34)  (  2, 56, 32)  (  2, 53, 34)  (  2, 56, 32)
  1  0.3012E-07  0  0.1569E-07  1 -0.2922E-07  0 -0.1481E-07  1  0.2771E-07
   (  2, 53, 34)  (  2, 56, 32)  (  2, 53, 34)  (  2, 56, 32)  (  2, 53, 34)
  0  0.1449E-07  1 -0.2676E-07  0 -0.1377E-07  1  0.2551E-07  0  0.1335E-07
   (  2, 56, 32)  (  2, 53, 34)  (  2, 56, 32)  (  2, 53, 34)  (  2, 56, 32)
  1 -0.2454E-07  0 -0.1275E-07  1  0.2345E-07  0  0.1230E-07  1 -0.2250E-07
   (  2, 53, 34)  (  2, 56, 32)  (  2, 53, 34)  (  2, 56, 32)  (  2, 53, 34)
  0 -0.1178E-07  1  0.2153E-07  0  0.1133E-07  1 -0.2063E-07  0 -0.1086E-07
   (  2, 56, 32)  (  2, 53, 34)  (  2, 56, 32)  (  2, 53, 34)  (  2, 56, 32)
  1  0.1972E-07  0  0.1042E-07  1 -0.1889E-07  0 -0.9998E-08  1  0.1811E-07
   (  2, 53, 34)  (  2, 56, 32)  (  2, 53, 34)  (  2, 56, 32)  (  2, 53, 34)
  0  0.9612E-08  1 -0.1734E-07  0 -0.9229E-08  1  0.1661E-07  0  0.8855E-08
   (  2, 56, 32)  (  2, 53, 34)  (  2, 56, 32)  (  2, 53, 34)  (  2, 56, 32)
  1 -0.1590E-07  0 -0.8501E-08  1  0.1523E-07
   (  2, 53, 34)  (  2, 56, 32)  (  2, 53, 34)



 OUTPUT CONTROL FOR STRESS PERIOD    2   TIME STEP   48
    SAVE HEAD FOR ALL LAYERS
    SAVE DRAWDOWN FOR ALL LAYERS
    SAVE BUDGET
    PRINT BUDGET
 UBDSV1 SAVING "         STORAGE" ON UNIT   9 AT TIME STEP 48, STRESS PERIOD   2
 UBDSV2 SAVING "   CONSTANT HEAD" ON UNIT   9 AT TIME STEP 48, STRESS PERIOD   2
 UBDSV1 SAVING "FLOW RIGHT FACE " ON UNIT   9 AT TIME STEP 48, STRESS PERIOD   2
 UBDSV1 SAVING "FLOW FRONT FACE " ON UNIT   9 AT TIME STEP 48, STRESS PERIOD   2
 UBDSV1 SAVING "FLOW LOWER FACE " ON UNIT   9 AT TIME STEP 48, STRESS PERIOD   2
 UBDSV4 SAVING "           WELLS" ON UNIT   9 AT TIME STEP 48, STRESS PERIOD   2
 UBDSV4 SAVING "   RIVER LEAKAGE" ON UNIT   9 AT TIME STEP 48, STRESS PERIOD   2
 UBDSV3 SAVING "              ET" ON UNIT   9 AT TIME STEP 48, STRESS PERIOD   2
 UBDSV4 SAVING " HEAD DEP BOUNDS" ON UNIT   9 AT TIME STEP 48, STRESS PERIOD   2
 UBDSV3 SAVING "        RECHARGE" ON UNIT   9 AT TIME STEP 48, STRESS PERIOD   2
 SOLVING FOR ZETA FOR LAYER     1 ZONE     2
     2 CALLS TO PCG ROUTINE FOR TIME STEP  48 IN STRESS PERIOD    2
     4 TOTAL ITERATIONS

 MAXIMUM HEAD CHANGE FOR EACH ITERATION (1 INDICATES THE FIRST INNER ITERATION):

    HEAD CHANGE    HEAD CHANGE    HEAD CHANGE    HEAD CHANGE    HEAD CHANGE 
   LAYER,ROW,COL  LAYER,ROW,COL  LAYER,ROW,COL  LAYER,ROW,COL  LAYER,ROW,COL
 ---------------------------------------------------------------------------
  1   25.10      0  0.1952      0  0.7282E-03  1  0.1300E-04
   (  1, 20,  8)  (  1, 21,  7)  (  1, 23,  6)  (  1, 24,  5)

 MAXIMUM RESIDUAL FOR EACH ITERATION (1 INDICATES THE FIRST INNER ITERATION):

    RESIDUAL       RESIDUAL       RESIDUAL       RESIDUAL       RESIDUAL    
   LAYER,ROW,COL  LAYER,ROW,COL  LAYER,ROW,COL  LAYER,ROW,COL  LAYER,ROW,COL
 ---------------------------------------------------------------------------
  1 -0.5968E-04  0 -0.2259E-06  0 -0.4354E-08  1 -0.6011E-10
   (  1, 21,  7)  (  1, 23,  6)  (  1, 24,  5)  (  1, 23,  6)


 SOLVING FOR ZETA FOR LAYER     2 ZONE     2
     2 CALLS TO PCG ROUTINE FOR TIME STEP  48 IN STRESS PERIOD    2
     4 TOTAL ITERATIONS

 MAXIMUM HEAD CHANGE FOR EACH ITERATION (1 INDICATES THE FIRST INNER ITERATION):

    HEAD CHANGE    HEAD CHANGE    HEAD CHANGE    HEAD CHANGE    HEAD CHANGE 
   LAYER,ROW,COL  LAYER,ROW,COL  LAYER,ROW,COL  LAYER,ROW,COL  LAYER,ROW,COL
 ---------------------------------------------------------------------------
  1   6.986      0  0.4995E-01  0  0.8774E-03  1  0.9687E-05
   (  1, 14,  9)  (  1,  8,  6)  (  1, 24,  7)  (  1, 23,  8)

 MAXIMUM RESIDUAL FOR EACH ITERATION (1 INDICATES THE FIRST INNER ITERATION):

    RESIDUAL       RESIDUAL       RESIDUAL       RESIDUAL       RESIDUAL    
   LAYER,ROW,COL  LAYER,ROW,COL  LAYER,ROW,COL  LAYER,ROW,COL  LAYER,ROW,COL
 ---------------------------------------------------------------------------
  1 -0.1564E-04  0 -0.3193E-06  0 -0.3219E-08  1 -0.1155E-09
   (  1,  7,  6)  (  1, 24,  7)  (  1, 25,  6)  (  1, 24,  7)


 UBUDSV SAVING "      ZETASRF  1" ON UNIT170 AT TIME STEP 48, STRESS PERIOD    2


                      VOLUMETRIC SWI ZONE BUDGET FOR ENTIRE MODEL
                     AT END OF TIME STEP   48 IN STRESS PERIOD   2
                                      ZONE     1
  -----------------------------------------------------------------------------------

        CUMULATIVE VOLUMES      L**3       RATES FOR THIS TIME STEP      L**3/T
        ------------------                 ------------------------

              IN:                                      IN:
              ---                                      ---
             BOUNDARIES =   676210240.0000            BOUNDARIES =           0.2056
          CONSTANT HEAD =           0.0000         CONSTANT HEAD =           0.0000
            ZONE CHANGE =   168218896.0000           ZONE CHANGE =       7.2902E-02
       ZONE CHG TIP/TOE =     7787412.0000      ZONE CHG TIP/TOE =       4.8108E-03
            ZONE MIXING =           0.0000           ZONE MIXING =           0.0000

               TOTAL IN =   852216576.0000              TOTAL IN =           0.2833

             OUT:                                     OUT:
             ----                                     ----
             BOUNDARIES =   743326400.0000            BOUNDARIES =           0.2916
          CONSTANT HEAD =           0.0000         CONSTANT HEAD =           0.0000
            ZONE CHANGE =    27979524.0000           ZONE CHANGE =       5.3814E-03
       ZONE CHG TIP/TOE =     6459084.5000      ZONE CHG TIP/TOE =       3.2458E-03
            ZONE MIXING =      621744.8125           ZONE MIXING =           0.0000

              TOTAL OUT =   778386752.0000             TOTAL OUT =           0.3002

               IN - OUT =    73829824.0000              IN - OUT =      -1.6949E-02

    PERCENT DISCREPANCY =           9.06     PERCENT DISCREPANCY =          -5.81



                      VOLUMETRIC SWI ZONE BUDGET FOR ENTIRE MODEL
                     AT END OF TIME STEP   48 IN STRESS PERIOD   2
                                      ZONE     2
  -----------------------------------------------------------------------------------

        CUMULATIVE VOLUMES      L**3       RATES FOR THIS TIME STEP      L**3/T
        ------------------                 ------------------------

              IN:                                      IN:
              ---                                      ---
             BOUNDARIES =    55444848.0000            BOUNDARIES =           0.1090
          CONSTANT HEAD =           0.0000         CONSTANT HEAD =           0.0000
            ZONE CHANGE =    24177430.0000           ZONE CHANGE =       4.7315E-03
       ZONE CHG TIP/TOE =    12615754.0000      ZONE CHG TIP/TOE =       1.7069E-02
            ZONE MIXING =      621744.8125           ZONE MIXING =           0.0000

               TOTAL IN =    92859776.0000              TOTAL IN =           0.1308

             OUT:                                     OUT:
             ----                                     ----
             BOUNDARIES =    53087284.0000            BOUNDARIES =       7.2527E-02
          CONSTANT HEAD =           0.0000         CONSTANT HEAD =           0.0000
            ZONE CHANGE =    39903048.0000           ZONE CHANGE =       4.5614E-02
       ZONE CHG TIP/TOE =     4725942.5000      ZONE CHG TIP/TOE =       3.9236E-03
            ZONE MIXING =           0.0000           ZONE MIXING =           0.0000

              TOTAL OUT =    97716272.0000             TOTAL OUT =           0.1221

               IN - OUT =    -4856496.0000              IN - OUT =       8.7075E-03

    PERCENT DISCREPANCY =          -5.10     PERCENT DISCREPANCY =           6.89


 HEAD WILL BE SAVED ON UNIT   37 AT END OF TIME STEP   48, STRESS PERIOD    2

 DRAWDOWN WILL BE SAVED ON UNIT   38 AT END OF TIME STEP   48, STRESS PERIOD    2
1
  VOLUMETRIC BUDGET FOR ENTIRE MODEL AT END OF TIME STEP   48, STRESS PERIOD   2
  ------------------------------------------------------------------------------

     CUMULATIVE VOLUMES      L**3       RATES FOR THIS TIME STEP      L**3/T
     ------------------                 ------------------------

           IN:                                      IN:
           ---                                      ---
             STORAGE =    64786316.0000               STORAGE =       4.9760E-02
       CONSTANT HEAD =           0.0000         CONSTANT HEAD =           0.0000
               WELLS =           0.0000                 WELLS =           0.0000
       RIVER LEAKAGE =   141756288.0000         RIVER LEAKAGE =       4.1000E-02
                  ET =           0.0000                    ET =           0.0000
     HEAD DEP BOUNDS =    64514580.0000       HEAD DEP BOUNDS =           0.1132
            RECHARGE =   566074432.0000              RECHARGE =           0.1809
          SWIADDTOCH =           0.0000            SWIADDTOCH =           0.0000

            TOTAL IN =   837131648.0000              TOTAL IN =           0.3849

          OUT:                                     OUT:
          ----                                     ----
             STORAGE =       40791.1680               STORAGE =       1.7067E-04
       CONSTANT HEAD =           0.0000         CONSTANT HEAD =           0.0000
               WELLS =   293537056.0000                 WELLS =           0.3800
       RIVER LEAKAGE =    21630804.0000         RIVER LEAKAGE =           0.0000
                  ET =   166413648.0000                    ET =           0.0000
     HEAD DEP BOUNDS =   355522016.0000       HEAD DEP BOUNDS =       4.6945E-03
            RECHARGE =           0.0000              RECHARGE =           0.0000
          SWIADDTOCH =           0.0000            SWIADDTOCH =           0.0000

           TOTAL OUT =   837144320.0000             TOTAL OUT =           0.3849

            IN - OUT =      -12672.0000              IN - OUT =      -2.9802E-08

 PERCENT DISCREPANCY =          -0.00     PERCENT DISCREPANCY =          -0.00






         TIME SUMMARY AT END OF TIME STEP   48 IN STRESS PERIOD    2
                    SECONDS     MINUTES      HOURS       DAYS        YEARS
                    -----------------------------------------------------------
   TIME STEP LENGTH 1.57680E+07 2.62800E+05  4380.0      182.50     0.49966    
 STRESS PERIOD TIME 7.56864E+08 1.26144E+07 2.10240E+05  8760.0      23.984    
         TOTAL TIME 3.91047E+09 6.51745E+07 1.08624E+06  45260.      123.92    
1
 
 SOLVING FOR HEAD 

 CELL CONVERSIONS FOR ITER.=  2  LAYER=  2  STEP= 49  PERIOD=   2   (ROW,COL)
    DRY( 55, 34)   
     6 CALLS TO PCG ROUTINE FOR TIME STEP  49 IN STRESS PERIOD    2
    17 TOTAL ITERATIONS

 MAXIMUM HEAD CHANGE FOR EACH ITERATION (1 INDICATES THE FIRST INNER ITERATION):

    HEAD CHANGE    HEAD CHANGE    HEAD CHANGE    HEAD CHANGE    HEAD CHANGE 
   LAYER,ROW,COL  LAYER,ROW,COL  LAYER,ROW,COL  LAYER,ROW,COL  LAYER,ROW,COL
 ---------------------------------------------------------------------------
  1 -0.2439      0  0.5883E-01  0  0.2005E-01  0  0.6557E-02  0 -0.1898E-02
   (  1, 20,  9)  (  2, 14,  9)  (  2,  6,  8)  (  2,  5, 10)  (  2,  5, 11)
  0  0.4445E-03  1  0.2203E-01  0  0.6717E-02  0  0.1347E-02  0  0.3315E-03
   (  2,  6, 12)  (  2,  6, 31)  (  2,  6, 31)  (  2,  6, 31)  (  2,  6, 31)
  1 -0.1138E-01  0 -0.2877E-03  1  0.4166E-02  0  0.1636E-03  1 -0.1851E-02
   (  2,  6, 31)  (  2,  6, 31)  (  2,  6, 31)  (  2, 57, 31)  (  2, 57, 31)
  0 -0.6749E-04  1  0.8196E-03
   (  2, 57, 31)  (  2, 57, 31)

 MAXIMUM RESIDUAL FOR EACH ITERATION (1 INDICATES THE FIRST INNER ITERATION):

    RESIDUAL       RESIDUAL       RESIDUAL       RESIDUAL       RESIDUAL    
   LAYER,ROW,COL  LAYER,ROW,COL  LAYER,ROW,COL  LAYER,ROW,COL  LAYER,ROW,COL
 ---------------------------------------------------------------------------
  1 -0.3977E-03  0  0.1218E-03  0  0.4493E-04  0  0.1360E-04  0 -0.3927E-05
   (  2, 20,  9)  (  2, 14, 10)  (  2, 20,  8)  (  2, 20,  8)  (  2, 15,  9)
  0  0.1794E-05  1 -0.7788E-05  0 -0.2233E-05  0 -0.6374E-06  0  0.1486E-06
   (  2, 19, 10)  (  2, 20,  9)  (  2, 20,  9)  (  2, 21,  7)  (  1, 20,  7)
  1 -0.6070E-06  0 -0.1978E-06  1 -0.3697E-06  0  0.1564E-06  1 -0.1432E-06
   (  2, 18, 11)  (  2, 55, 32)  (  2,  5, 11)  (  2, 55, 32)  (  2,  5, 11)
  0 -0.7866E-07  1 -0.7646E-07
   (  2, 55, 32)  (  2,  5, 11)



 OUTPUT CONTROL FOR STRESS PERIOD    2   TIME STEP   49
    SAVE HEAD FOR ALL LAYERS
    SAVE DRAWDOWN FOR ALL LAYERS
    SAVE BUDGET
    PRINT BUDGET
 UBDSV1 SAVING "         STORAGE" ON UNIT   9 AT TIME STEP 49, STRESS PERIOD   2
 UBDSV2 SAVING "   CONSTANT HEAD" ON UNIT   9 AT TIME STEP 49, STRESS PERIOD   2
 UBDSV1 SAVING "FLOW RIGHT FACE " ON UNIT   9 AT TIME STEP 49, STRESS PERIOD   2
 UBDSV1 SAVING "FLOW FRONT FACE " ON UNIT   9 AT TIME STEP 49, STRESS PERIOD   2
 UBDSV1 SAVING "FLOW LOWER FACE " ON UNIT   9 AT TIME STEP 49, STRESS PERIOD   2
 UBDSV4 SAVING "           WELLS" ON UNIT   9 AT TIME STEP 49, STRESS PERIOD   2
 UBDSV4 SAVING "   RIVER LEAKAGE" ON UNIT   9 AT TIME STEP 49, STRESS PERIOD   2
 UBDSV3 SAVING "              ET" ON UNIT   9 AT TIME STEP 49, STRESS PERIOD   2
 UBDSV4 SAVING " HEAD DEP BOUNDS" ON UNIT   9 AT TIME STEP 49, STRESS PERIOD   2
 UBDSV3 SAVING "        RECHARGE" ON UNIT   9 AT TIME STEP 49, STRESS PERIOD   2
 SOLVING FOR ZETA FOR LAYER     1 ZONE     2
     2 CALLS TO PCG ROUTINE FOR TIME STEP  49 IN STRESS PERIOD    2
     4 TOTAL ITERATIONS

 MAXIMUM HEAD CHANGE FOR EACH ITERATION (1 INDICATES THE FIRST INNER ITERATION):

    HEAD CHANGE    HEAD CHANGE    HEAD CHANGE    HEAD CHANGE    HEAD CHANGE 
   LAYER,ROW,COL  LAYER,ROW,COL  LAYER,ROW,COL  LAYER,ROW,COL  LAYER,ROW,COL
 ---------------------------------------------------------------------------
  1   12.40      0  0.4617E-01  0  0.5667E-03  1  0.6944E-05
   (  1, 15,  9)  (  1, 24,  5)  (  1, 23,  6)  (  1, 22,  7)

 MAXIMUM RESIDUAL FOR EACH ITERATION (1 INDICATES THE FIRST INNER ITERATION):

    RESIDUAL       RESIDUAL       RESIDUAL       RESIDUAL       RESIDUAL    
   LAYER,ROW,COL  LAYER,ROW,COL  LAYER,ROW,COL  LAYER,ROW,COL  LAYER,ROW,COL
 ---------------------------------------------------------------------------
  1 -0.1582E-04  0 -0.1789E-06  0 -0.1985E-08  1 -0.2865E-10
   (  1, 24,  5)  (  1, 23,  6)  (  1, 22,  7)  (  1, 23,  6)


 SOLVING FOR ZETA FOR LAYER     2 ZONE     2
     2 CALLS TO PCG ROUTINE FOR TIME STEP  49 IN STRESS PERIOD    2
     4 TOTAL ITERATIONS

 MAXIMUM HEAD CHANGE FOR EACH ITERATION (1 INDICATES THE FIRST INNER ITERATION):

    HEAD CHANGE    HEAD CHANGE    HEAD CHANGE    HEAD CHANGE    HEAD CHANGE 
   LAYER,ROW,COL  LAYER,ROW,COL  LAYER,ROW,COL  LAYER,ROW,COL  LAYER,ROW,COL
 ---------------------------------------------------------------------------
  1   3.796      0  0.4859E-01  0  0.7488E-03  1 -0.8359E-05
   (  1, 13,  9)  (  1, 23,  8)  (  1,  6,  7)  (  1,  9,  7)

 MAXIMUM RESIDUAL FOR EACH ITERATION (1 INDICATES THE FIRST INNER ITERATION):

    RESIDUAL       RESIDUAL       RESIDUAL       RESIDUAL       RESIDUAL    
   LAYER,ROW,COL  LAYER,ROW,COL  LAYER,ROW,COL  LAYER,ROW,COL  LAYER,ROW,COL
 ---------------------------------------------------------------------------
  1 -0.1608E-04  0 -0.2316E-06  0  0.2857E-08  1 -0.3266E-10
   (  1,  7,  6)  (  1,  6,  7)  (  1,  9,  7)  (  1, 27,  5)


 UBUDSV SAVING "      ZETASRF  1" ON UNIT170 AT TIME STEP 49, STRESS PERIOD    2


                      VOLUMETRIC SWI ZONE BUDGET FOR ENTIRE MODEL
                     AT END OF TIME STEP   49 IN STRESS PERIOD   2
                                      ZONE     1
  -----------------------------------------------------------------------------------

        CUMULATIVE VOLUMES      L**3       RATES FOR THIS TIME STEP      L**3/T
        ------------------                 ------------------------

              IN:                                      IN:
              ---                                      ---
             BOUNDARIES =   679453696.0000            BOUNDARIES =           0.2057
          CONSTANT HEAD =           0.0000         CONSTANT HEAD =           0.0000
            ZONE CHANGE =   169295040.0000           ZONE CHANGE =       6.8248E-02
       ZONE CHG TIP/TOE =     7891382.5000      ZONE CHG TIP/TOE =       6.5938E-03
            ZONE MIXING =           0.0000           ZONE MIXING =           0.0000

               TOTAL IN =   856640128.0000              TOTAL IN =           0.2805

             OUT:                                     OUT:
             ----                                     ----
             BOUNDARIES =   747612416.0000            BOUNDARIES =           0.2718
          CONSTANT HEAD =           0.0000         CONSTANT HEAD =           0.0000
            ZONE CHANGE =    28125692.0000           ZONE CHANGE =       9.2699E-03
       ZONE CHG TIP/TOE =     6530289.5000      ZONE CHG TIP/TOE =       4.5158E-03
            ZONE MIXING =      621744.8125           ZONE MIXING =           0.0000

              TOTAL OUT =   782890112.0000             TOTAL OUT =           0.2856

               IN - OUT =    73750016.0000              IN - OUT =      -5.0631E-03

    PERCENT DISCREPANCY =           9.00     PERCENT DISCREPANCY =          -1.79



                      VOLUMETRIC SWI ZONE BUDGET FOR ENTIRE MODEL
                     AT END OF TIME STEP   49 IN STRESS PERIOD   2
                                      ZONE     2
  -----------------------------------------------------------------------------------

        CUMULATIVE VOLUMES      L**3       RATES FOR THIS TIME STEP      L**3/T
        ------------------                 ------------------------

              IN:                                      IN:
              ---                                      ---
             BOUNDARIES =    57172176.0000            BOUNDARIES =           0.1095
          CONSTANT HEAD =           0.0000         CONSTANT HEAD =           0.0000
            ZONE CHANGE =    24291166.0000           ZONE CHANGE =       7.2132E-03
       ZONE CHG TIP/TOE =    12742981.0000      ZONE CHG TIP/TOE =       8.0687E-03
            ZONE MIXING =      621744.8125           ZONE MIXING =           0.0000

               TOTAL IN =    94828064.0000              TOTAL IN =           0.1248

             OUT:                                     OUT:
             ----                                     ----
             BOUNDARIES =    54540244.0000            BOUNDARIES =       9.2146E-02
          CONSTANT HEAD =           0.0000         CONSTANT HEAD =           0.0000
            ZONE CHANGE =    40402132.0000           ZONE CHANGE =       3.1652E-02
       ZONE CHG TIP/TOE =     4790023.0000      ZONE CHG TIP/TOE =       4.0639E-03
            ZONE MIXING =           0.0000           ZONE MIXING =           0.0000

              TOTAL OUT =    99732400.0000             TOTAL OUT =           0.1279

               IN - OUT =    -4904336.0000              IN - OUT =      -3.0335E-03

    PERCENT DISCREPANCY =          -5.04     PERCENT DISCREPANCY =          -2.40


 HEAD WILL BE SAVED ON UNIT   37 AT END OF TIME STEP   49, STRESS PERIOD    2

 DRAWDOWN WILL BE SAVED ON UNIT   38 AT END OF TIME STEP   49, STRESS PERIOD    2
1
  VOLUMETRIC BUDGET FOR ENTIRE MODEL AT END OF TIME STEP   49, STRESS PERIOD   2
  ------------------------------------------------------------------------------

     CUMULATIVE VOLUMES      L**3       RATES FOR THIS TIME STEP      L**3/T
     ------------------                 ------------------------

           IN:                                      IN:
           ---                                      ---
             STORAGE =    65555288.0000               STORAGE =       4.8768E-02
       CONSTANT HEAD =           0.0000         CONSTANT HEAD =           0.0000
               WELLS =           0.0000                 WELLS =           0.0000
       RIVER LEAKAGE =   142402784.0000         RIVER LEAKAGE =       4.1000E-02
                  ET =           0.0000                    ET =           0.0000
     HEAD DEP BOUNDS =    66309888.0000       HEAD DEP BOUNDS =           0.1139
            RECHARGE =   568927424.0000              RECHARGE =           0.1809
          SWIADDTOCH =           0.0000            SWIADDTOCH =           0.0000

            TOTAL IN =   843195392.0000              TOTAL IN =           0.3846

          OUT:                                     OUT:
          ----                                     ----
             STORAGE =       41558.3281               STORAGE =       4.8653E-05
       CONSTANT HEAD =           0.0000         CONSTANT HEAD =           0.0000
               WELLS =   299528896.0000                 WELLS =           0.3800
       RIVER LEAKAGE =    21630804.0000         RIVER LEAKAGE =           0.0000
                  ET =   166413648.0000                    ET =           0.0000
     HEAD DEP BOUNDS =   355593184.0000       HEAD DEP BOUNDS =       4.5131E-03
            RECHARGE =           0.0000              RECHARGE =           0.0000
          SWIADDTOCH =           0.0000            SWIADDTOCH =           0.0000

           TOTAL OUT =   843208064.0000             TOTAL OUT =           0.3846

            IN - OUT =      -12672.0000              IN - OUT =      -2.9802E-08

 PERCENT DISCREPANCY =          -0.00     PERCENT DISCREPANCY =          -0.00






         TIME SUMMARY AT END OF TIME STEP   49 IN STRESS PERIOD    2
                    SECONDS     MINUTES      HOURS       DAYS        YEARS
                    -----------------------------------------------------------
   TIME STEP LENGTH 1.57680E+07 2.62800E+05  4380.0      182.50     0.49966    
 STRESS PERIOD TIME 7.72632E+08 1.28772E+07 2.14620E+05  8942.5      24.483    
         TOTAL TIME 3.92624E+09 6.54373E+07 1.09062E+06  45443.      124.41    
1
 
 SOLVING FOR HEAD 

 CELL CONVERSIONS FOR ITER.=  2  LAYER=  1  STEP= 50  PERIOD=   2   (ROW,COL)
    DRY( 44, 22)   DRY( 44, 23)   DRY( 45, 25)   DRY( 46, 22)   

 CELL CONVERSIONS FOR ITER.=  2  LAYER=  2  STEP= 50  PERIOD=   2   (ROW,COL)
    DRY( 54, 37)   

 CELL CONVERSIONS FOR ITER.=  5  LAYER=  1  STEP= 50  PERIOD=   2   (ROW,COL)
    DRY( 35, 28)   
     6 CALLS TO PCG ROUTINE FOR TIME STEP  50 IN STRESS PERIOD    2
    19 TOTAL ITERATIONS

 MAXIMUM HEAD CHANGE FOR EACH ITERATION (1 INDICATES THE FIRST INNER ITERATION):

    HEAD CHANGE    HEAD CHANGE    HEAD CHANGE    HEAD CHANGE    HEAD CHANGE 
   LAYER,ROW,COL  LAYER,ROW,COL  LAYER,ROW,COL  LAYER,ROW,COL  LAYER,ROW,COL
 ---------------------------------------------------------------------------
  1 -0.2512      0  0.6348E-01  0  0.1640E-01  0  0.5541E-02  0 -0.1697E-02
   (  2, 21,  9)  (  2, 15,  9)  (  2,  6,  9)  (  2,  5, 11)  (  2,  6, 12)
  0  0.5165E-03  1 -0.1038      0  0.2048E-01  0  0.3719E-02  0  0.1283E-02
   (  2,  7, 13)  (  2, 44, 22)  (  2, 44, 23)  (  2, 46, 22)  (  2, 46, 22)
  0  0.3037E-03  1 -0.1403E-01  0 -0.3729E-03  1  0.6544E-02  0  0.1895E-03
   (  2, 46, 22)  (  2,  6, 31)  (  2, 56, 31)  (  2,  6, 31)  (  2, 56, 31)
  1 -0.3968E-01  0 -0.4103E-02  0 -0.9231E-03  1  0.7666E-03
   (  2, 35, 28)  (  2, 33, 30)  (  2, 34, 29)  (  2, 57, 31)

 MAXIMUM RESIDUAL FOR EACH ITERATION (1 INDICATES THE FIRST INNER ITERATION):

    RESIDUAL       RESIDUAL       RESIDUAL       RESIDUAL       RESIDUAL    
   LAYER,ROW,COL  LAYER,ROW,COL  LAYER,ROW,COL  LAYER,ROW,COL  LAYER,ROW,COL
 ---------------------------------------------------------------------------
  1 -0.4397E-03  0  0.1399E-03  0 -0.3798E-04  0  0.1337E-04  0  0.3930E-05
   (  2,  7,  7)  (  2, 20,  9)  (  2, 20, 10)  (  2, 23,  7)  (  2, 13,  7)
  0 -0.1189E-05  1  0.1239E-02  0  0.1713E-03  0  0.3660E-04  0  0.9113E-05
   (  2, 20,  9)  (  1, 35, 28)  (  1, 35, 28)  (  1, 35, 28)  (  1, 35, 28)
  0 -0.2338E-05  1  0.1327E-04  0  0.3941E-05  1 -0.3896E-04  0 -0.1319E-04
   (  2, 35, 28)  (  1, 35, 28)  (  1, 35, 28)  (  2, 35, 28)  (  2, 35, 28)
  1  0.3620E-04  0  0.1033E-04  0  0.2239E-05  1  0.9222E-06
   (  2, 35, 28)  (  2, 34, 29)  (  2, 34, 29)  (  2, 36, 27)



 OUTPUT CONTROL FOR STRESS PERIOD    2   TIME STEP   50
    SAVE HEAD FOR ALL LAYERS
    SAVE DRAWDOWN FOR ALL LAYERS
    SAVE BUDGET
    PRINT BUDGET
 UBDSV1 SAVING "         STORAGE" ON UNIT   9 AT TIME STEP 50, STRESS PERIOD   2
 UBDSV2 SAVING "   CONSTANT HEAD" ON UNIT   9 AT TIME STEP 50, STRESS PERIOD   2
 UBDSV1 SAVING "FLOW RIGHT FACE " ON UNIT   9 AT TIME STEP 50, STRESS PERIOD   2
 UBDSV1 SAVING "FLOW FRONT FACE " ON UNIT   9 AT TIME STEP 50, STRESS PERIOD   2
 UBDSV1 SAVING "FLOW LOWER FACE " ON UNIT   9 AT TIME STEP 50, STRESS PERIOD   2
 UBDSV4 SAVING "           WELLS" ON UNIT   9 AT TIME STEP 50, STRESS PERIOD   2
 UBDSV4 SAVING "   RIVER LEAKAGE" ON UNIT   9 AT TIME STEP 50, STRESS PERIOD   2
 UBDSV3 SAVING "              ET" ON UNIT   9 AT TIME STEP 50, STRESS PERIOD   2
 UBDSV4 SAVING " HEAD DEP BOUNDS" ON UNIT   9 AT TIME STEP 50, STRESS PERIOD   2
 UBDSV3 SAVING "        RECHARGE" ON UNIT   9 AT TIME STEP 50, STRESS PERIOD   2
 SOLVING FOR ZETA FOR LAYER     1 ZONE     2
     2 CALLS TO PCG ROUTINE FOR TIME STEP  50 IN STRESS PERIOD    2
     5 TOTAL ITERATIONS

 MAXIMUM HEAD CHANGE FOR EACH ITERATION (1 INDICATES THE FIRST INNER ITERATION):

    HEAD CHANGE    HEAD CHANGE    HEAD CHANGE    HEAD CHANGE    HEAD CHANGE 
   LAYER,ROW,COL  LAYER,ROW,COL  LAYER,ROW,COL  LAYER,ROW,COL  LAYER,ROW,COL
 ---------------------------------------------------------------------------
  1   34.24      0  0.9882E-01  0  0.1009E-02  0  0.1202E-04  1  0.1481E-05
   (  1, 18, 10)  (  1, 15,  7)  (  1, 23,  6)  (  1, 24,  5)  (  1, 18, 10)

 MAXIMUM RESIDUAL FOR EACH ITERATION (1 INDICATES THE FIRST INNER ITERATION):

    RESIDUAL       RESIDUAL       RESIDUAL       RESIDUAL       RESIDUAL    
   LAYER,ROW,COL  LAYER,ROW,COL  LAYER,ROW,COL  LAYER,ROW,COL  LAYER,ROW,COL
 ---------------------------------------------------------------------------
  1 -0.2785E-04  0 -0.3413E-06  0 -0.4324E-08  0  0.3092E-10  1  0.8571E-12
   (  1, 15,  7)  (  1, 23,  6)  (  1, 24,  5)  (  1, 14,  8)  (  1, 15,  7)


 SOLVING FOR ZETA FOR LAYER     2 ZONE     2
     2 CALLS TO PCG ROUTINE FOR TIME STEP  50 IN STRESS PERIOD    2
     4 TOTAL ITERATIONS

 MAXIMUM HEAD CHANGE FOR EACH ITERATION (1 INDICATES THE FIRST INNER ITERATION):

    HEAD CHANGE    HEAD CHANGE    HEAD CHANGE    HEAD CHANGE    HEAD CHANGE 
   LAYER,ROW,COL  LAYER,ROW,COL  LAYER,ROW,COL  LAYER,ROW,COL  LAYER,ROW,COL
 ---------------------------------------------------------------------------
  1   4.551      0 -0.7046E-01  0  0.9358E-03  1  0.1326E-04
   (  1, 14, 10)  (  1, 23,  8)  (  1,  8,  6)  (  1, 27,  5)

 MAXIMUM RESIDUAL FOR EACH ITERATION (1 INDICATES THE FIRST INNER ITERATION):

    RESIDUAL       RESIDUAL       RESIDUAL       RESIDUAL       RESIDUAL    
   LAYER,ROW,COL  LAYER,ROW,COL  LAYER,ROW,COL  LAYER,ROW,COL  LAYER,ROW,COL
 ---------------------------------------------------------------------------
  1  0.2456E-04  0 -0.3271E-06  0 -0.4870E-08  1 -0.1352E-09
   (  1, 23,  8)  (  1, 26,  6)  (  1, 27,  5)  (  1, 26,  6)


 UBUDSV SAVING "      ZETASRF  1" ON UNIT170 AT TIME STEP 50, STRESS PERIOD    2


                      VOLUMETRIC SWI ZONE BUDGET FOR ENTIRE MODEL
                     AT END OF TIME STEP   50 IN STRESS PERIOD   2
                                      ZONE     1
  -----------------------------------------------------------------------------------

        CUMULATIVE VOLUMES      L**3       RATES FOR THIS TIME STEP      L**3/T
        ------------------                 ------------------------

              IN:                                      IN:
              ---                                      ---
             BOUNDARIES =   682658112.0000            BOUNDARIES =           0.2032
          CONSTANT HEAD =           0.0000         CONSTANT HEAD =           0.0000
            ZONE CHANGE =   170392176.0000           ZONE CHANGE =       6.9579E-02
       ZONE CHG TIP/TOE =     8037257.0000      ZONE CHG TIP/TOE =       9.2513E-03
            ZONE MIXING =           0.0000           ZONE MIXING =           0.0000

               TOTAL IN =   861087552.0000              TOTAL IN =           0.2821

             OUT:                                     OUT:
             ----                                     ----
             BOUNDARIES =   751974528.0000            BOUNDARIES =           0.2766
          CONSTANT HEAD =           0.0000         CONSTANT HEAD =           0.0000
            ZONE CHANGE =    28182734.0000           ZONE CHANGE =       3.6175E-03
       ZONE CHG TIP/TOE =     6632159.0000      ZONE CHG TIP/TOE =       6.4605E-03
            ZONE MIXING =      621744.8125           ZONE MIXING =           0.0000

              TOTAL OUT =   787411200.0000             TOTAL OUT =           0.2867

               IN - OUT =    73676352.0000              IN - OUT =      -4.6691E-03

    PERCENT DISCREPANCY =           8.94     PERCENT DISCREPANCY =          -1.64



                      VOLUMETRIC SWI ZONE BUDGET FOR ENTIRE MODEL
                     AT END OF TIME STEP   50 IN STRESS PERIOD   2
                                      ZONE     2
  -----------------------------------------------------------------------------------

        CUMULATIVE VOLUMES      L**3       RATES FOR THIS TIME STEP      L**3/T
        ------------------                 ------------------------

              IN:                                      IN:
              ---                                      ---
             BOUNDARIES =    58938032.0000            BOUNDARIES =           0.1120
          CONSTANT HEAD =           0.0000         CONSTANT HEAD =           0.0000
            ZONE CHANGE =    24346872.0000           ZONE CHANGE =       3.5329E-03
       ZONE CHG TIP/TOE =    13002635.0000      ZONE CHG TIP/TOE =       1.6467E-02
            ZONE MIXING =      621744.8125           ZONE MIXING =           0.0000

               TOTAL IN =    96909280.0000              TOTAL IN =           0.1320

             OUT:                                     OUT:
             ----                                     ----
             BOUNDARIES =    55914364.0000            BOUNDARIES =       8.7146E-02
          CONSTANT HEAD =           0.0000         CONSTANT HEAD =           0.0000
            ZONE CHANGE =    41022204.0000           ZONE CHANGE =       3.9325E-02
       ZONE CHG TIP/TOE =     4930775.0000      ZONE CHG TIP/TOE =       8.9264E-03
            ZONE MIXING =           0.0000           ZONE MIXING =           0.0000

              TOTAL OUT =   101867344.0000             TOTAL OUT =           0.1354

               IN - OUT =    -4958064.0000              IN - OUT =      -3.4073E-03

    PERCENT DISCREPANCY =          -4.99     PERCENT DISCREPANCY =          -2.55


 HEAD WILL BE SAVED ON UNIT   37 AT END OF TIME STEP   50, STRESS PERIOD    2

 DRAWDOWN WILL BE SAVED ON UNIT   38 AT END OF TIME STEP   50, STRESS PERIOD    2
1
  VOLUMETRIC BUDGET FOR ENTIRE MODEL AT END OF TIME STEP   50, STRESS PERIOD   2
  ------------------------------------------------------------------------------

     CUMULATIVE VOLUMES      L**3       RATES FOR THIS TIME STEP      L**3/T
     ------------------                 ------------------------

           IN:                                      IN:
           ---                                      ---
             STORAGE =    66322720.0000               STORAGE =       4.8670E-02
       CONSTANT HEAD =           0.0000         CONSTANT HEAD =           0.0000
               WELLS =           0.0000                 WELLS =           0.0000
       RIVER LEAKAGE =   143049280.0000         RIVER LEAKAGE =       4.1000E-02
                  ET =           0.0000                    ET =           0.0000
     HEAD DEP BOUNDS =    68119664.0000       HEAD DEP BOUNDS =           0.1148
            RECHARGE =   571765440.0000              RECHARGE =           0.1800
          SWIADDTOCH =           0.0000            SWIADDTOCH =           0.0000

            TOTAL IN =   849257088.0000              TOTAL IN =           0.3844

          OUT:                                     OUT:
          ----                                     ----
             STORAGE =       43077.5312               STORAGE =       9.6347E-05
       CONSTANT HEAD =           0.0000         CONSTANT HEAD =           0.0000
               WELLS =   305520736.0000                 WELLS =           0.3800
       RIVER LEAKAGE =    21630804.0000         RIVER LEAKAGE =           0.0000
                  ET =   166413648.0000                    ET =           0.0000
     HEAD DEP BOUNDS =   355661600.0000       HEAD DEP BOUNDS =       4.3381E-03
            RECHARGE =           0.0000              RECHARGE =           0.0000
          SWIADDTOCH =           0.0000            SWIADDTOCH =           0.0000

           TOTAL OUT =   849269888.0000             TOTAL OUT =           0.3844

            IN - OUT =      -12800.0000              IN - OUT =      -4.0531E-06

 PERCENT DISCREPANCY =          -0.00     PERCENT DISCREPANCY =          -0.00






         TIME SUMMARY AT END OF TIME STEP   50 IN STRESS PERIOD    2
                    SECONDS     MINUTES      HOURS       DAYS        YEARS
                    -----------------------------------------------------------
   TIME STEP LENGTH 1.57680E+07 2.62800E+05  4380.0      182.50     0.49966    
 STRESS PERIOD TIME 7.88400E+08 1.31400E+07 2.19000E+05  9125.0      24.983    
         TOTAL TIME 3.94200E+09 6.57001E+07 1.09500E+06  45625.      124.91    
1
 
 SOLVING FOR HEAD 
    11 CALLS TO PCG ROUTINE FOR TIME STEP  51 IN STRESS PERIOD    2
    26 TOTAL ITERATIONS

 MAXIMUM HEAD CHANGE FOR EACH ITERATION (1 INDICATES THE FIRST INNER ITERATION):

    HEAD CHANGE    HEAD CHANGE    HEAD CHANGE    HEAD CHANGE    HEAD CHANGE 
   LAYER,ROW,COL  LAYER,ROW,COL  LAYER,ROW,COL  LAYER,ROW,COL  LAYER,ROW,COL
 ---------------------------------------------------------------------------
  1 -0.2390      0 -0.5608E-01  0 -0.1502E-01  0 -0.4444E-02  0  0.1331E-02
   (  1, 14,  8)  (  2, 21,  8)  (  2,  8,  7)  (  2,  6, 10)  (  2, 22,  6)
  0  0.4076E-03  1  0.2968E-01  0  0.3165E-02  0  0.5236E-03  1 -0.1495E-01
   (  2,  5, 13)  (  2, 51, 39)  (  2, 18, 11)  (  1, 18, 10)  (  2,  6, 31)
  0 -0.3173E-03  1  0.8163E-02  0  0.1891E-03  1 -0.4484E-02  0 -0.1325E-03
   (  2,  5, 31)  (  2,  6, 31)  (  2, 56, 31)  (  2,  6, 31)  (  2, 56, 31)
  1  0.2455E-02  0  0.7572E-04  1 -0.1346E-02  0 -0.5241E-04  1  0.2332E-01
   (  2,  6, 31)  (  2, 56, 31)  (  2,  6, 31)  (  2, 56, 31)  (  1,  9, 26)
  0  0.5892E-03  1 -0.2196E-01  0 -0.4763E-03  1 -0.1415E-02  0 -0.5977E-04
   (  1,  9, 26)  (  1,  9, 26)  (  1,  9, 26)  (  1,  9, 26)  (  2,  5, 12)
  1 -0.2035E-03
   (  2, 57, 31)

 MAXIMUM RESIDUAL FOR EACH ITERATION (1 INDICATES THE FIRST INNER ITERATION):

    RESIDUAL       RESIDUAL       RESIDUAL       RESIDUAL       RESIDUAL    
   LAYER,ROW,COL  LAYER,ROW,COL  LAYER,ROW,COL  LAYER,ROW,COL  LAYER,ROW,COL
 ---------------------------------------------------------------------------
  1  0.4279E-03  0 -0.1255E-03  0 -0.4833E-04  0 -0.1074E-04  0  0.3844E-05
   (  2, 21,  8)  (  1, 21,  7)  (  2, 20,  8)  (  1, 21,  7)  (  2, 18, 10)
  0  0.1073E-05  1  0.8342E-04  0  0.1077E-04  0  0.2430E-05  1  0.1454E-04
   (  2, 18, 10)  (  1,  9, 26)  (  1,  9, 26)  (  1,  9, 26)  (  1,  9, 26)
  0  0.3835E-05  1 -0.6444E-04  0 -0.2032E-04  1  0.7527E-04  0  0.2853E-04
   (  1,  9, 26)  (  2,  9, 26)  (  2,  9, 26)  (  1,  9, 26)  (  1,  9, 26)
  1 -0.5395E-04  0 -0.2022E-04  1  0.1289E-03  0  0.4859E-04  1 -0.2551E-05
   (  2,  9, 26)  (  2,  9, 26)  (  1,  9, 26)  (  1,  9, 26)  (  2,  9, 26)
  0 -0.6218E-06  1  0.2201E-05  0  0.4470E-06  1  0.4640E-06  0  0.2094E-06
   (  2,  9, 26)  (  2,  9, 26)  (  2,  9, 26)  (  2,  9, 27)  (  2,  9, 27)
  1 -0.1129E-05
   (  2,  9, 26)



 OUTPUT CONTROL FOR STRESS PERIOD    2   TIME STEP   51
    SAVE HEAD FOR ALL LAYERS
    SAVE DRAWDOWN FOR ALL LAYERS
    SAVE BUDGET
    PRINT BUDGET
 UBDSV1 SAVING "         STORAGE" ON UNIT   9 AT TIME STEP 51, STRESS PERIOD   2
 UBDSV2 SAVING "   CONSTANT HEAD" ON UNIT   9 AT TIME STEP 51, STRESS PERIOD   2
 UBDSV1 SAVING "FLOW RIGHT FACE " ON UNIT   9 AT TIME STEP 51, STRESS PERIOD   2
 UBDSV1 SAVING "FLOW FRONT FACE " ON UNIT   9 AT TIME STEP 51, STRESS PERIOD   2
 UBDSV1 SAVING "FLOW LOWER FACE " ON UNIT   9 AT TIME STEP 51, STRESS PERIOD   2
 UBDSV4 SAVING "           WELLS" ON UNIT   9 AT TIME STEP 51, STRESS PERIOD   2
 UBDSV4 SAVING "   RIVER LEAKAGE" ON UNIT   9 AT TIME STEP 51, STRESS PERIOD   2
 UBDSV3 SAVING "              ET" ON UNIT   9 AT TIME STEP 51, STRESS PERIOD   2
 UBDSV4 SAVING " HEAD DEP BOUNDS" ON UNIT   9 AT TIME STEP 51, STRESS PERIOD   2
 UBDSV3 SAVING "        RECHARGE" ON UNIT   9 AT TIME STEP 51, STRESS PERIOD   2
 SOLVING FOR ZETA FOR LAYER     1 ZONE     2
     2 CALLS TO PCG ROUTINE FOR TIME STEP  51 IN STRESS PERIOD    2
     5 TOTAL ITERATIONS

 MAXIMUM HEAD CHANGE FOR EACH ITERATION (1 INDICATES THE FIRST INNER ITERATION):

    HEAD CHANGE    HEAD CHANGE    HEAD CHANGE    HEAD CHANGE    HEAD CHANGE 
   LAYER,ROW,COL  LAYER,ROW,COL  LAYER,ROW,COL  LAYER,ROW,COL  LAYER,ROW,COL
 ---------------------------------------------------------------------------
  1   27.59      0  0.1244      0  0.1137E-02  0  0.1284E-04  1  0.1239E-05
   (  1, 20,  9)  (  1, 21,  8)  (  1, 23,  6)  (  1, 24,  5)  (  1, 20,  9)

 MAXIMUM RESIDUAL FOR EACH ITERATION (1 INDICATES THE FIRST INNER ITERATION):

    RESIDUAL       RESIDUAL       RESIDUAL       RESIDUAL       RESIDUAL    
   LAYER,ROW,COL  LAYER,ROW,COL  LAYER,ROW,COL  LAYER,ROW,COL  LAYER,ROW,COL
 ---------------------------------------------------------------------------
  1 -0.3532E-04  0 -0.4016E-06  0 -0.4533E-08  0  0.2391E-10  1 -0.1668E-11
   (  1, 21,  8)  (  1, 23,  6)  (  1, 24,  5)  (  1, 20,  9)  (  1, 21,  8)


 SOLVING FOR ZETA FOR LAYER     2 ZONE     2
     2 CALLS TO PCG ROUTINE FOR TIME STEP  51 IN STRESS PERIOD    2
     4 TOTAL ITERATIONS

 MAXIMUM HEAD CHANGE FOR EACH ITERATION (1 INDICATES THE FIRST INNER ITERATION):

    HEAD CHANGE    HEAD CHANGE    HEAD CHANGE    HEAD CHANGE    HEAD CHANGE 
   LAYER,ROW,COL  LAYER,ROW,COL  LAYER,ROW,COL  LAYER,ROW,COL  LAYER,ROW,COL
 ---------------------------------------------------------------------------
  1   3.640      0  0.6186E-01  0  0.9477E-03  1  0.1225E-04
   (  1,  6,  8)  (  1, 24,  7)  (  1,  8,  6)  (  1, 27,  5)

 MAXIMUM RESIDUAL FOR EACH ITERATION (1 INDICATES THE FIRST INNER ITERATION):

    RESIDUAL       RESIDUAL       RESIDUAL       RESIDUAL       RESIDUAL    
   LAYER,ROW,COL  LAYER,ROW,COL  LAYER,ROW,COL  LAYER,ROW,COL  LAYER,ROW,COL
 ---------------------------------------------------------------------------
  1 -0.2082E-04  0 -0.3420E-06  0 -0.4588E-08  1 -0.1337E-09
   (  1, 24,  7)  (  1, 23,  8)  (  1, 27,  5)  (  1, 26,  6)


 UBUDSV SAVING "      ZETASRF  1" ON UNIT170 AT TIME STEP 51, STRESS PERIOD    2


                      VOLUMETRIC SWI ZONE BUDGET FOR ENTIRE MODEL
                     AT END OF TIME STEP   51 IN STRESS PERIOD   2
                                      ZONE     1
  -----------------------------------------------------------------------------------

        CUMULATIVE VOLUMES      L**3       RATES FOR THIS TIME STEP      L**3/T
        ------------------                 ------------------------

              IN:                                      IN:
              ---                                      ---
             BOUNDARIES =   685860672.0000            BOUNDARIES =           0.2031
          CONSTANT HEAD =           0.0000         CONSTANT HEAD =           0.0000
            ZONE CHANGE =   171551648.0000           ZONE CHANGE =       7.3533E-02
       ZONE CHG TIP/TOE =     8049543.0000      ZONE CHG TIP/TOE =       7.7919E-04
            ZONE MIXING =           0.0000           ZONE MIXING =           0.0000

               TOTAL IN =   865461888.0000              TOTAL IN =           0.2774

             OUT:                                     OUT:
             ----                                     ----
             BOUNDARIES =   762093312.0000            BOUNDARIES =           0.6417
          CONSTANT HEAD =           0.0000         CONSTANT HEAD =           0.0000
            ZONE CHANGE =    28281384.0000           ZONE CHANGE =       6.2563E-03
       ZONE CHG TIP/TOE =     6644397.5000      ZONE CHG TIP/TOE =       7.7616E-04
            ZONE MIXING =      621744.8125           ZONE MIXING =           0.0000

              TOTAL OUT =   797640832.0000             TOTAL OUT =           0.6488

               IN - OUT =    67821056.0000              IN - OUT =          -0.3713

    PERCENT DISCREPANCY =           8.16     PERCENT DISCREPANCY =         -80.19



                      VOLUMETRIC SWI ZONE BUDGET FOR ENTIRE MODEL
                     AT END OF TIME STEP   51 IN STRESS PERIOD   2
                                      ZONE     2
  -----------------------------------------------------------------------------------

        CUMULATIVE VOLUMES      L**3       RATES FOR THIS TIME STEP      L**3/T
        ------------------                 ------------------------

              IN:                                      IN:
              ---                                      ---
             BOUNDARIES =    60713732.0000            BOUNDARIES =           0.1126
          CONSTANT HEAD =           0.0000         CONSTANT HEAD =           0.0000
            ZONE CHANGE =    24440530.0000           ZONE CHANGE =       5.9398E-03
       ZONE CHG TIP/TOE =    13289057.0000      ZONE CHG TIP/TOE =       1.8165E-02
            ZONE MIXING =      621744.8125           ZONE MIXING =           0.0000

               TOTAL IN =    99065064.0000              TOTAL IN =           0.1367

             OUT:                                     OUT:
             ----                                     ----
             BOUNDARIES =    56982124.0000            BOUNDARIES =       6.7717E-02
          CONSTANT HEAD =           0.0000         CONSTANT HEAD =           0.0000
            ZONE CHANGE =    41835804.0000           ZONE CHANGE =       5.1598E-02
       ZONE CHG TIP/TOE =     4930775.0000      ZONE CHG TIP/TOE =           0.0000
            ZONE MIXING =           0.0000           ZONE MIXING =           0.0000

              TOTAL OUT =   103748704.0000             TOTAL OUT =           0.1193

               IN - OUT =    -4683640.0000              IN - OUT =       1.7403E-02

    PERCENT DISCREPANCY =          -4.62     PERCENT DISCREPANCY =          13.59


 HEAD WILL BE SAVED ON UNIT   37 AT END OF TIME STEP   51, STRESS PERIOD    2

 DRAWDOWN WILL BE SAVED ON UNIT   38 AT END OF TIME STEP   51, STRESS PERIOD    2
1
  VOLUMETRIC BUDGET FOR ENTIRE MODEL AT END OF TIME STEP   51, STRESS PERIOD   2
  ------------------------------------------------------------------------------

     CUMULATIVE VOLUMES      L**3       RATES FOR THIS TIME STEP      L**3/T
     ------------------                 ------------------------

           IN:                                      IN:
           ---                                      ---
             STORAGE =    67076192.0000               STORAGE =       4.7785E-02
       CONSTANT HEAD =           0.0000         CONSTANT HEAD =           0.0000
               WELLS =           0.0000                 WELLS =           0.0000
       RIVER LEAKAGE =   143695776.0000         RIVER LEAKAGE =       4.1000E-02
                  ET =           0.0000                    ET =           0.0000
     HEAD DEP BOUNDS =    69940456.0000       HEAD DEP BOUNDS =           0.1155
            RECHARGE =   574603456.0000              RECHARGE =           0.1800
          SWIADDTOCH =           0.0000            SWIADDTOCH =           0.0000

            TOTAL IN =   855315840.0000              TOTAL IN =           0.3842

          OUT:                                     OUT:
          ----                                     ----
             STORAGE =       44154.0508               STORAGE =       6.8272E-05
       CONSTANT HEAD =           0.0000         CONSTANT HEAD =           0.0000
               WELLS =   311512576.0000                 WELLS =           0.3800
       RIVER LEAKAGE =    21630804.0000         RIVER LEAKAGE =           0.0000
                  ET =   166413648.0000                    ET =           0.0000
     HEAD DEP BOUNDS =   355727424.0000       HEAD DEP BOUNDS =       4.1755E-03
            RECHARGE =           0.0000              RECHARGE =           0.0000
          SWIADDTOCH =           0.0000            SWIADDTOCH =           0.0000

           TOTAL OUT =   855328640.0000             TOTAL OUT =           0.3842

            IN - OUT =      -12800.0000              IN - OUT =           0.0000

 PERCENT DISCREPANCY =          -0.00     PERCENT DISCREPANCY =           0.00






         TIME SUMMARY AT END OF TIME STEP   51 IN STRESS PERIOD    2
                    SECONDS     MINUTES      HOURS       DAYS        YEARS
                    -----------------------------------------------------------
   TIME STEP LENGTH 1.57680E+07 2.62800E+05  4380.0      182.50     0.49966    
 STRESS PERIOD TIME 8.04168E+08 1.34028E+07 2.23380E+05  9307.5      25.483    
         TOTAL TIME 3.95777E+09 6.59629E+07 1.09938E+06  45808.      125.41    
1
 
 SOLVING FOR HEAD 

 CELL CONVERSIONS FOR ITER.=  1  LAYER=  1  STEP= 52  PERIOD=   2   (ROW,COL)
    DRY(  9, 26)   

 CELL CONVERSIONS FOR ITER.=  2  LAYER=  1  STEP= 52  PERIOD=   2   (ROW,COL)
    DRY( 10, 29)   DRY( 19, 36)   DRY( 49, 23)   

 CELL CONVERSIONS FOR ITER.=  2  LAYER=  2  STEP= 52  PERIOD=   2   (ROW,COL)
    DRY( 53, 40)   
     9 CALLS TO PCG ROUTINE FOR TIME STEP  52 IN STRESS PERIOD    2
    23 TOTAL ITERATIONS

 MAXIMUM HEAD CHANGE FOR EACH ITERATION (1 INDICATES THE FIRST INNER ITERATION):

    HEAD CHANGE    HEAD CHANGE    HEAD CHANGE    HEAD CHANGE    HEAD CHANGE 
   LAYER,ROW,COL  LAYER,ROW,COL  LAYER,ROW,COL  LAYER,ROW,COL  LAYER,ROW,COL
 ---------------------------------------------------------------------------
  1 -0.2151      0 -0.7332E-01  0 -0.1847E-01  0 -0.4110E-02  0 -0.1334E-02
   (  1, 19, 10)  (  2, 14,  8)  (  2, 12,  9)  (  2,  7, 10)  (  2,  5, 12)
  0  0.4758E-03  1 -0.7115E-01  0  0.7715E-02  0  0.1911E-02  0  0.5301E-03
   (  2,  5, 11)  (  2, 49, 23)  (  2, 51, 39)  (  2, 51, 39)  (  2, 51, 39)
  1 -0.1341E-01  0 -0.5231E-03  1  0.8113E-02  0  0.2543E-03  1 -0.4940E-02
   (  2,  6, 31)  (  2,  6, 31)  (  2,  6, 31)  (  2,  6, 31)  (  2,  6, 31)
  0 -0.1252E-03  1  0.2991E-02  0  0.7391E-04  1 -0.1812E-02  0 -0.4387E-04
   (  2,  6, 31)  (  2,  6, 31)  (  2,  6, 31)  (  2,  6, 31)  (  2,  6, 31)
  1  0.1093E-02  0  0.2766E-04  1 -0.6576E-03
   (  2,  6, 31)  (  2,  6, 31)  (  2,  6, 31)

 MAXIMUM RESIDUAL FOR EACH ITERATION (1 INDICATES THE FIRST INNER ITERATION):

    RESIDUAL       RESIDUAL       RESIDUAL       RESIDUAL       RESIDUAL    
   LAYER,ROW,COL  LAYER,ROW,COL  LAYER,ROW,COL  LAYER,ROW,COL  LAYER,ROW,COL
 ---------------------------------------------------------------------------
  1  0.4719E-03  0  0.1219E-03  0  0.3535E-04  0 -0.1172E-04  0 -0.3899E-05
   (  2, 14,  8)  (  2, 14,  9)  (  2, 13,  9)  (  2, 18, 11)  (  2, 18, 11)
  0  0.1438E-05  1  0.3578E-04  0  0.1502E-04  0  0.3645E-05  0  0.8218E-06
   (  2, 19, 10)  (  2, 48, 24)  (  2, 48, 24)  (  2, 48, 24)  (  2, 47, 25)
  1 -0.6878E-06  0 -0.2754E-06  1 -0.4498E-06  0  0.2262E-06  1 -0.2986E-06
   (  2,  5, 11)  (  2, 15, 34)  (  2,  5, 11)  (  2,  7, 29)  (  2,  7, 29)
  0 -0.1485E-06  1  0.1878E-06  0  0.9438E-07  1 -0.1165E-06  0 -0.5724E-07
   (  2,  7, 29)  (  2,  7, 29)  (  2,  7, 29)  (  2,  7, 29)  (  2,  7, 29)
  1  0.7038E-07  0  0.3511E-07  1 -0.4266E-07
   (  2,  7, 29)  (  2,  7, 29)  (  2,  7, 29)



 OUTPUT CONTROL FOR STRESS PERIOD    2   TIME STEP   52
    SAVE HEAD FOR ALL LAYERS
    SAVE DRAWDOWN FOR ALL LAYERS
    SAVE BUDGET
    PRINT BUDGET
 UBDSV1 SAVING "         STORAGE" ON UNIT   9 AT TIME STEP 52, STRESS PERIOD   2
 UBDSV2 SAVING "   CONSTANT HEAD" ON UNIT   9 AT TIME STEP 52, STRESS PERIOD   2
 UBDSV1 SAVING "FLOW RIGHT FACE " ON UNIT   9 AT TIME STEP 52, STRESS PERIOD   2
 UBDSV1 SAVING "FLOW FRONT FACE " ON UNIT   9 AT TIME STEP 52, STRESS PERIOD   2
 UBDSV1 SAVING "FLOW LOWER FACE " ON UNIT   9 AT TIME STEP 52, STRESS PERIOD   2
 UBDSV4 SAVING "           WELLS" ON UNIT   9 AT TIME STEP 52, STRESS PERIOD   2
 UBDSV4 SAVING "   RIVER LEAKAGE" ON UNIT   9 AT TIME STEP 52, STRESS PERIOD   2
 UBDSV3 SAVING "              ET" ON UNIT   9 AT TIME STEP 52, STRESS PERIOD   2
 UBDSV4 SAVING " HEAD DEP BOUNDS" ON UNIT   9 AT TIME STEP 52, STRESS PERIOD   2
 UBDSV3 SAVING "        RECHARGE" ON UNIT   9 AT TIME STEP 52, STRESS PERIOD   2
 SOLVING FOR ZETA FOR LAYER     1 ZONE     2
     2 CALLS TO PCG ROUTINE FOR TIME STEP  52 IN STRESS PERIOD    2
     4 TOTAL ITERATIONS

 MAXIMUM HEAD CHANGE FOR EACH ITERATION (1 INDICATES THE FIRST INNER ITERATION):

    HEAD CHANGE    HEAD CHANGE    HEAD CHANGE    HEAD CHANGE    HEAD CHANGE 
   LAYER,ROW,COL  LAYER,ROW,COL  LAYER,ROW,COL  LAYER,ROW,COL  LAYER,ROW,COL
 ---------------------------------------------------------------------------
  1  -7.117      0  0.6420E-01  0  0.8815E-03  1  0.4999E-05
   (  1, 20, 10)  (  1, 24,  5)  (  1, 23,  6)  (  1, 24,  5)

 MAXIMUM RESIDUAL FOR EACH ITERATION (1 INDICATES THE FIRST INNER ITERATION):

    RESIDUAL       RESIDUAL       RESIDUAL       RESIDUAL       RESIDUAL    
   LAYER,ROW,COL  LAYER,ROW,COL  LAYER,ROW,COL  LAYER,ROW,COL  LAYER,ROW,COL
 ---------------------------------------------------------------------------
  1 -0.2361E-04  0 -0.3159E-06  0 -0.1860E-08  1 -0.2057E-10
   (  1, 24,  5)  (  1, 23,  6)  (  1, 24,  5)  (  1, 23,  6)


 SOLVING FOR ZETA FOR LAYER     2 ZONE     2
     2 CALLS TO PCG ROUTINE FOR TIME STEP  52 IN STRESS PERIOD    2
     4 TOTAL ITERATIONS

 MAXIMUM HEAD CHANGE FOR EACH ITERATION (1 INDICATES THE FIRST INNER ITERATION):

    HEAD CHANGE    HEAD CHANGE    HEAD CHANGE    HEAD CHANGE    HEAD CHANGE 
   LAYER,ROW,COL  LAYER,ROW,COL  LAYER,ROW,COL  LAYER,ROW,COL  LAYER,ROW,COL
 ---------------------------------------------------------------------------
  1   3.384      0  0.6298E-01  0  0.9391E-03  1  0.1284E-04
   (  1,  6,  8)  (  1, 24,  7)  (  1, 23,  8)  (  1, 27,  5)

 MAXIMUM RESIDUAL FOR EACH ITERATION (1 INDICATES THE FIRST INNER ITERATION):

    RESIDUAL       RESIDUAL       RESIDUAL       RESIDUAL       RESIDUAL    
   LAYER,ROW,COL  LAYER,ROW,COL  LAYER,ROW,COL  LAYER,ROW,COL  LAYER,ROW,COL
 ---------------------------------------------------------------------------
  1 -0.2152E-04  0 -0.3616E-06  0 -0.4767E-08  1 -0.1579E-09
   (  1, 24,  7)  (  1, 23,  8)  (  1, 27,  5)  (  1, 26,  6)


 UBUDSV SAVING "      ZETASRF  1" ON UNIT170 AT TIME STEP 52, STRESS PERIOD    2


                      VOLUMETRIC SWI ZONE BUDGET FOR ENTIRE MODEL
                     AT END OF TIME STEP   52 IN STRESS PERIOD   2
                                      ZONE     1
  -----------------------------------------------------------------------------------

        CUMULATIVE VOLUMES      L**3       RATES FOR THIS TIME STEP      L**3/T
        ------------------                 ------------------------

              IN:                                      IN:
              ---                                      ---
             BOUNDARIES =   689055552.0000            BOUNDARIES =           0.2026
          CONSTANT HEAD =           0.0000         CONSTANT HEAD =           0.0000
            ZONE CHANGE =   172551360.0000           ZONE CHANGE =       6.3401E-02
       ZONE CHG TIP/TOE =     8136436.0000      ZONE CHG TIP/TOE =       5.5107E-03
            ZONE MIXING =           0.0000           ZONE MIXING =           0.0000

               TOTAL IN =   869743360.0000              TOTAL IN =           0.2715

             OUT:                                     OUT:
             ----                                     ----
             BOUNDARIES =   766219776.0000            BOUNDARIES =           0.2617
          CONSTANT HEAD =           0.0000         CONSTANT HEAD =           0.0000
            ZONE CHANGE =    28408024.0000           ZONE CHANGE =       8.0315E-03
       ZONE CHG TIP/TOE =     6697736.5000      ZONE CHG TIP/TOE =       3.3827E-03
            ZONE MIXING =      621744.8125           ZONE MIXING =           0.0000

              TOTAL OUT =   801947264.0000             TOTAL OUT =           0.2731

               IN - OUT =    67796096.0000              IN - OUT =      -1.5843E-03

    PERCENT DISCREPANCY =           8.11     PERCENT DISCREPANCY =          -0.58



                      VOLUMETRIC SWI ZONE BUDGET FOR ENTIRE MODEL
                     AT END OF TIME STEP   52 IN STRESS PERIOD   2
                                      ZONE     2
  -----------------------------------------------------------------------------------

        CUMULATIVE VOLUMES      L**3       RATES FOR THIS TIME STEP      L**3/T
        ------------------                 ------------------------

              IN:                                      IN:
              ---                                      ---
             BOUNDARIES =    62495940.0000            BOUNDARIES =           0.1130
          CONSTANT HEAD =           0.0000         CONSTANT HEAD =           0.0000
            ZONE CHANGE =    24556132.0000           ZONE CHANGE =       7.3314E-03
       ZONE CHG TIP/TOE =    13354455.0000      ZONE CHG TIP/TOE =       4.1475E-03
            ZONE MIXING =      621744.8125           ZONE MIXING =           0.0000

               TOTAL IN =   101028272.0000              TOTAL IN =           0.1245

             OUT:                                     OUT:
             ----                                     ----
             BOUNDARIES =    58586764.0000            BOUNDARIES =           0.1018
          CONSTANT HEAD =           0.0000         CONSTANT HEAD =           0.0000
            ZONE CHANGE =    42224372.0000           ZONE CHANGE =       2.4643E-02
       ZONE CHG TIP/TOE =     5001109.0000      ZONE CHG TIP/TOE =       4.4606E-03
            ZONE MIXING =           0.0000           ZONE MIXING =           0.0000

              TOTAL OUT =   105812240.0000             TOTAL OUT =           0.1309

               IN - OUT =    -4783968.0000              IN - OUT =      -6.3634E-03

    PERCENT DISCREPANCY =          -4.63     PERCENT DISCREPANCY =          -4.98


 HEAD WILL BE SAVED ON UNIT   37 AT END OF TIME STEP   52, STRESS PERIOD    2

 DRAWDOWN WILL BE SAVED ON UNIT   38 AT END OF TIME STEP   52, STRESS PERIOD    2
1
  VOLUMETRIC BUDGET FOR ENTIRE MODEL AT END OF TIME STEP   52, STRESS PERIOD   2
  ------------------------------------------------------------------------------

     CUMULATIVE VOLUMES      L**3       RATES FOR THIS TIME STEP      L**3/T
     ------------------                 ------------------------

           IN:                                      IN:
           ---                                      ---
             STORAGE =    67831272.0000               STORAGE =       4.7887E-02
       CONSTANT HEAD =           0.0000         CONSTANT HEAD =           0.0000
               WELLS =           0.0000                 WELLS =           0.0000
       RIVER LEAKAGE =   144342272.0000         RIVER LEAKAGE =       4.1000E-02
                  ET =           0.0000                    ET =           0.0000
     HEAD DEP BOUNDS =    71769048.0000       HEAD DEP BOUNDS =           0.1160
            RECHARGE =   577429440.0000              RECHARGE =           0.1792
          SWIADDTOCH =           0.0000            SWIADDTOCH =           0.0000

            TOTAL IN =   861372032.0000              TOTAL IN =           0.3841

          OUT:                                     OUT:
          ----                                     ----
             STORAGE =       45198.9609               STORAGE =       6.6268E-05
       CONSTANT HEAD =           0.0000         CONSTANT HEAD =           0.0000
               WELLS =   317504416.0000                 WELLS =           0.3800
       RIVER LEAKAGE =    21630804.0000         RIVER LEAKAGE =           0.0000
                  ET =   166413648.0000                    ET =           0.0000
     HEAD DEP BOUNDS =   355790688.0000       HEAD DEP BOUNDS =       4.0129E-03
            RECHARGE =           0.0000              RECHARGE =           0.0000
          SWIADDTOCH =           0.0000            SWIADDTOCH =           0.0000

           TOTAL OUT =   861384704.0000             TOTAL OUT =           0.3841

            IN - OUT =      -12672.0000              IN - OUT =      -2.9802E-08

 PERCENT DISCREPANCY =          -0.00     PERCENT DISCREPANCY =          -0.00






         TIME SUMMARY AT END OF TIME STEP   52 IN STRESS PERIOD    2
                    SECONDS     MINUTES      HOURS       DAYS        YEARS
                    -----------------------------------------------------------
   TIME STEP LENGTH 1.57680E+07 2.62800E+05  4380.0      182.50     0.49966    
 STRESS PERIOD TIME 8.19936E+08 1.36656E+07 2.27760E+05  9490.0      25.982    
         TOTAL TIME 3.97354E+09 6.62257E+07 1.10376E+06  45990.      125.91    
1
 
 SOLVING FOR HEAD 

 CELL CONVERSIONS FOR ITER.=  2  LAYER=  1  STEP= 53  PERIOD=   2   (ROW,COL)
    DRY( 15, 35)   DRY( 24, 37)   DRY( 45, 24)   

 CELL CONVERSIONS FOR ITER.=  3  LAYER=  1  STEP= 53  PERIOD=   2   (ROW,COL)
    DRY( 17, 36)   
    10 CALLS TO PCG ROUTINE FOR TIME STEP  53 IN STRESS PERIOD    2
    27 TOTAL ITERATIONS

 MAXIMUM HEAD CHANGE FOR EACH ITERATION (1 INDICATES THE FIRST INNER ITERATION):

    HEAD CHANGE    HEAD CHANGE    HEAD CHANGE    HEAD CHANGE    HEAD CHANGE 
   LAYER,ROW,COL  LAYER,ROW,COL  LAYER,ROW,COL  LAYER,ROW,COL  LAYER,ROW,COL
 ---------------------------------------------------------------------------
  1 -0.2129      0 -0.6669E-01  0  0.1885E-01  0  0.7189E-02  0  0.2087E-02
   (  2, 15, 10)  (  2,  6,  8)  (  2,  6,  9)  (  2,  5, 11)  (  2,  4, 14)
  0  0.6696E-03  1 -0.7421E-01  0  0.1800E-01  0  0.2805E-02  0  0.6569E-03
   (  2,  5,  9)  (  2, 24, 37)  (  2, 24, 37)  (  2, 15, 35)  (  2, 24, 37)
  1 -0.4834E-01  0 -0.6788E-02  0 -0.1492E-02  0 -0.1852E-03  1  0.8778E-02
   (  2, 17, 36)  (  2, 16, 37)  (  2, 16, 37)  (  2, 16, 37)  (  2,  6, 31)
  0  0.2165E-03  1 -0.6147E-02  0 -0.1221E-03  1  0.4266E-02  0  0.9203E-04
   (  2,  6, 31)  (  2,  6, 31)  (  2,  6, 31)  (  2,  6, 31)  (  2,  6, 31)
  1 -0.2970E-02  0 -0.6155E-04  1  0.2058E-02  0  0.4653E-04  1 -0.1427E-02
   (  2,  6, 31)  (  2,  6, 31)  (  2,  6, 31)  (  2,  6, 31)  (  2,  6, 31)
  0 -0.3194E-04  1  0.9854E-03
   (  2,  6, 31)  (  2,  6, 31)

 MAXIMUM RESIDUAL FOR EACH ITERATION (1 INDICATES THE FIRST INNER ITERATION):

    RESIDUAL       RESIDUAL       RESIDUAL       RESIDUAL       RESIDUAL    
   LAYER,ROW,COL  LAYER,ROW,COL  LAYER,ROW,COL  LAYER,ROW,COL  LAYER,ROW,COL
 ---------------------------------------------------------------------------
  1 -0.4779E-03  0 -0.1492E-03  0 -0.3987E-04  0  0.1271E-04  0  0.4003E-05
   (  2, 15, 10)  (  2, 15, 10)  (  2, 16,  9)  (  2, 23,  6)  (  2, 23,  6)
  0 -0.1067E-05  1  0.1153E-02  0  0.1247E-03  0  0.2606E-04  0  0.6204E-05
   (  2, 19, 10)  (  1, 17, 36)  (  1, 17, 36)  (  1, 17, 36)  (  1, 17, 36)
  1  0.2619E-04  0  0.8485E-05  0  0.1318E-05  0  0.6196E-06  1 -0.4413E-06
   (  2, 16, 37)  (  2, 18, 35)  (  2, 16, 37)  (  2, 19, 34)  (  2,  5, 11)
  0  0.1804E-06  1 -0.3213E-06  0 -0.1482E-06  1  0.2343E-06  0  0.1190E-06
   (  2,  7, 29)  (  2,  7, 29)  (  2,  7, 29)  (  2,  7, 29)  (  2,  7, 29)
  1 -0.1723E-06  0 -0.7959E-07  1  0.1175E-06  0  0.5866E-07  1 -0.8344E-07
   (  2,  7, 29)  (  2,  7, 29)  (  2,  7, 29)  (  2,  7, 29)  (  2,  7, 29)
  0 -0.3914E-07  1  0.5672E-07
   (  2,  7, 29)  (  2,  7, 29)



 OUTPUT CONTROL FOR STRESS PERIOD    2   TIME STEP   53
    SAVE HEAD FOR ALL LAYERS
    SAVE DRAWDOWN FOR ALL LAYERS
    SAVE BUDGET
    PRINT BUDGET
 UBDSV1 SAVING "         STORAGE" ON UNIT   9 AT TIME STEP 53, STRESS PERIOD   2
 UBDSV2 SAVING "   CONSTANT HEAD" ON UNIT   9 AT TIME STEP 53, STRESS PERIOD   2
 UBDSV1 SAVING "FLOW RIGHT FACE " ON UNIT   9 AT TIME STEP 53, STRESS PERIOD   2
 UBDSV1 SAVING "FLOW FRONT FACE " ON UNIT   9 AT TIME STEP 53, STRESS PERIOD   2
 UBDSV1 SAVING "FLOW LOWER FACE " ON UNIT   9 AT TIME STEP 53, STRESS PERIOD   2
 UBDSV4 SAVING "           WELLS" ON UNIT   9 AT TIME STEP 53, STRESS PERIOD   2
 UBDSV4 SAVING "   RIVER LEAKAGE" ON UNIT   9 AT TIME STEP 53, STRESS PERIOD   2
 UBDSV3 SAVING "              ET" ON UNIT   9 AT TIME STEP 53, STRESS PERIOD   2
 UBDSV4 SAVING " HEAD DEP BOUNDS" ON UNIT   9 AT TIME STEP 53, STRESS PERIOD   2
 UBDSV3 SAVING "        RECHARGE" ON UNIT   9 AT TIME STEP 53, STRESS PERIOD   2
 SOLVING FOR ZETA FOR LAYER     1 ZONE     2
     2 CALLS TO PCG ROUTINE FOR TIME STEP  53 IN STRESS PERIOD    2
     4 TOTAL ITERATIONS

 MAXIMUM HEAD CHANGE FOR EACH ITERATION (1 INDICATES THE FIRST INNER ITERATION):

    HEAD CHANGE    HEAD CHANGE    HEAD CHANGE    HEAD CHANGE    HEAD CHANGE 
   LAYER,ROW,COL  LAYER,ROW,COL  LAYER,ROW,COL  LAYER,ROW,COL  LAYER,ROW,COL
 ---------------------------------------------------------------------------
  1   34.42      0  0.1100      0  0.7943E-03  1 -0.2894E-05
   (  1, 18, 10)  (  1, 14,  9)  (  1, 15,  8)  (  1, 22,  3)

 MAXIMUM RESIDUAL FOR EACH ITERATION (1 INDICATES THE FIRST INNER ITERATION):

    RESIDUAL       RESIDUAL       RESIDUAL       RESIDUAL       RESIDUAL    
   LAYER,ROW,COL  LAYER,ROW,COL  LAYER,ROW,COL  LAYER,ROW,COL  LAYER,ROW,COL
 ---------------------------------------------------------------------------
  1 -0.3055E-04  0 -0.2284E-06  0  0.1143E-08  1  0.1262E-10
   (  1, 14,  9)  (  1, 15,  8)  (  1, 22,  3)  (  1, 18, 10)


 SOLVING FOR ZETA FOR LAYER     2 ZONE     2
     2 CALLS TO PCG ROUTINE FOR TIME STEP  53 IN STRESS PERIOD    2
     5 TOTAL ITERATIONS

 MAXIMUM HEAD CHANGE FOR EACH ITERATION (1 INDICATES THE FIRST INNER ITERATION):

    HEAD CHANGE    HEAD CHANGE    HEAD CHANGE    HEAD CHANGE    HEAD CHANGE 
   LAYER,ROW,COL  LAYER,ROW,COL  LAYER,ROW,COL  LAYER,ROW,COL  LAYER,ROW,COL
 ---------------------------------------------------------------------------
  1   4.165      0  0.6080E-01  0  0.1226E-02  0  0.1360E-04  1  0.2696E-06
   (  1,  7,  8)  (  1, 24,  7)  (  1, 23,  8)  (  1, 27,  5)  (  1, 26,  6)

 MAXIMUM RESIDUAL FOR EACH ITERATION (1 INDICATES THE FIRST INNER ITERATION):

    RESIDUAL       RESIDUAL       RESIDUAL       RESIDUAL       RESIDUAL    
   LAYER,ROW,COL  LAYER,ROW,COL  LAYER,ROW,COL  LAYER,ROW,COL  LAYER,ROW,COL
 ---------------------------------------------------------------------------
  1 -0.2074E-04  0 -0.4605E-06  0 -0.5000E-08  0 -0.1046E-09  1 -0.2161E-11
   (  1, 24,  7)  (  1, 23,  8)  (  1, 27,  5)  (  1, 26,  6)  (  1, 27,  5)


 UBUDSV SAVING "      ZETASRF  1" ON UNIT170 AT TIME STEP 53, STRESS PERIOD    2


                      VOLUMETRIC SWI ZONE BUDGET FOR ENTIRE MODEL
                     AT END OF TIME STEP   53 IN STRESS PERIOD   2
                                      ZONE     1
  -----------------------------------------------------------------------------------

        CUMULATIVE VOLUMES      L**3       RATES FOR THIS TIME STEP      L**3/T
        ------------------                 ------------------------

              IN:                                      IN:
              ---                                      ---
             BOUNDARIES =   692239488.0000            BOUNDARIES =           0.2019
          CONSTANT HEAD =           0.0000         CONSTANT HEAD =           0.0000
            ZONE CHANGE =   173608192.0000           ZONE CHANGE =       6.7024E-02
       ZONE CHG TIP/TOE =     8213595.5000      ZONE CHG TIP/TOE =       4.8934E-03
            ZONE MIXING =           0.0000           ZONE MIXING =           0.0000

               TOTAL IN =   874061312.0000              TOTAL IN =           0.2738

             OUT:                                     OUT:
             ----                                     ----
             BOUNDARIES =   770725952.0000            BOUNDARIES =           0.2858
          CONSTANT HEAD =           0.0000         CONSTANT HEAD =           0.0000
            ZONE CHANGE =    28466630.0000           ZONE CHANGE =       3.7167E-03
       ZONE CHG TIP/TOE =     6769736.5000      ZONE CHG TIP/TOE =       4.5662E-03
            ZONE MIXING =      621744.8125           ZONE MIXING =           0.0000

              TOTAL OUT =   806584064.0000             TOTAL OUT =           0.2941

               IN - OUT =    67477248.0000              IN - OUT =      -2.0220E-02

    PERCENT DISCREPANCY =           8.03     PERCENT DISCREPANCY =          -7.12



                      VOLUMETRIC SWI ZONE BUDGET FOR ENTIRE MODEL
                     AT END OF TIME STEP   53 IN STRESS PERIOD   2
                                      ZONE     2
  -----------------------------------------------------------------------------------

        CUMULATIVE VOLUMES      L**3       RATES FOR THIS TIME STEP      L**3/T
        ------------------                 ------------------------

              IN:                                      IN:
              ---                                      ---
             BOUNDARIES =    64288628.0000            BOUNDARIES =           0.1137
          CONSTANT HEAD =           0.0000         CONSTANT HEAD =           0.0000
            ZONE CHANGE =    24617484.0000           ZONE CHANGE =       3.8909E-03
       ZONE CHG TIP/TOE =    13646810.0000      ZONE CHG TIP/TOE =       1.8541E-02
            ZONE MIXING =      621744.8125           ZONE MIXING =           0.0000

               TOTAL IN =   103174672.0000              TOTAL IN =           0.1361

             OUT:                                     OUT:
             ----                                     ----
             BOUNDARIES =    59809204.0000            BOUNDARIES =       7.7527E-02
          CONSTANT HEAD =           0.0000         CONSTANT HEAD =           0.0000
            ZONE CHANGE =    42877316.0000           ZONE CHANGE =       4.1409E-02
       ZONE CHG TIP/TOE =     5078268.5000      ZONE CHG TIP/TOE =       4.8934E-03
            ZONE MIXING =           0.0000           ZONE MIXING =           0.0000

              TOTAL OUT =   107764784.0000             TOTAL OUT =           0.1238

               IN - OUT =    -4590112.0000              IN - OUT =       1.2294E-02

    PERCENT DISCREPANCY =          -4.35     PERCENT DISCREPANCY =           9.46


 HEAD WILL BE SAVED ON UNIT   37 AT END OF TIME STEP   53, STRESS PERIOD    2

 DRAWDOWN WILL BE SAVED ON UNIT   38 AT END OF TIME STEP   53, STRESS PERIOD    2
1
  VOLUMETRIC BUDGET FOR ENTIRE MODEL AT END OF TIME STEP   53, STRESS PERIOD   2
  ------------------------------------------------------------------------------

     CUMULATIVE VOLUMES      L**3       RATES FOR THIS TIME STEP      L**3/T
     ------------------                 ------------------------

           IN:                                      IN:
           ---                                      ---
             STORAGE =    68585112.0000               STORAGE =       4.7808E-02
       CONSTANT HEAD =           0.0000         CONSTANT HEAD =           0.0000
               WELLS =           0.0000                 WELLS =           0.0000
       RIVER LEAKAGE =   144988768.0000         RIVER LEAKAGE =       4.1000E-02
                  ET =           0.0000                    ET =           0.0000
     HEAD DEP BOUNDS =    73609200.0000       HEAD DEP BOUNDS =           0.1167
            RECHARGE =   580243456.0000              RECHARGE =           0.1785
          SWIADDTOCH =           0.0000            SWIADDTOCH =           0.0000

            TOTAL IN =   867426560.0000              TOTAL IN =           0.3840

          OUT:                                     OUT:
          ----                                     ----
             STORAGE =       47079.8555               STORAGE =       1.1929E-04
       CONSTANT HEAD =           0.0000         CONSTANT HEAD =           0.0000
               WELLS =   323496256.0000                 WELLS =           0.3800
       RIVER LEAKAGE =    21630804.0000         RIVER LEAKAGE =           0.0000
                  ET =   166413648.0000                    ET =           0.0000
     HEAD DEP BOUNDS =   355851456.0000       HEAD DEP BOUNDS =       3.8531E-03
            RECHARGE =           0.0000              RECHARGE =           0.0000
          SWIADDTOCH =           0.0000            SWIADDTOCH =           0.0000

           TOTAL OUT =   867439232.0000             TOTAL OUT =           0.3840

            IN - OUT =      -12672.0000              IN - OUT =           0.0000

 PERCENT DISCREPANCY =          -0.00     PERCENT DISCREPANCY =           0.00






         TIME SUMMARY AT END OF TIME STEP   53 IN STRESS PERIOD    2
                    SECONDS     MINUTES      HOURS       DAYS        YEARS
                    -----------------------------------------------------------
   TIME STEP LENGTH 1.57680E+07 2.62800E+05  4380.0      182.50     0.49966    
 STRESS PERIOD TIME 8.35704E+08 1.39284E+07 2.32140E+05  9672.5      26.482    
         TOTAL TIME 3.98931E+09 6.64885E+07 1.10814E+06  46173.      126.41    
1
 
 SOLVING FOR HEAD 

 CELL CONVERSIONS FOR ITER.=  2  LAYER=  1  STEP= 54  PERIOD=   2   (ROW,COL)
    DRY( 19, 37)   DRY( 37, 32)   DRY( 40, 31)   DRY( 40, 33)   DRY( 43, 27)   

 CELL CONVERSIONS FOR ITER.=  3  LAYER=  1  STEP= 54  PERIOD=   2   (ROW,COL)
    DRY( 34, 32)   

 CELL CONVERSIONS FOR ITER.=  7  LAYER=  1  STEP= 54  PERIOD=   2   (ROW,COL)
    DRY( 36, 32)   
    13 CALLS TO PCG ROUTINE FOR TIME STEP  54 IN STRESS PERIOD    2
    35 TOTAL ITERATIONS

 MAXIMUM HEAD CHANGE FOR EACH ITERATION (1 INDICATES THE FIRST INNER ITERATION):

    HEAD CHANGE    HEAD CHANGE    HEAD CHANGE    HEAD CHANGE    HEAD CHANGE 
   LAYER,ROW,COL  LAYER,ROW,COL  LAYER,ROW,COL  LAYER,ROW,COL  LAYER,ROW,COL
 ---------------------------------------------------------------------------
  1 -0.2511      0 -0.5535E-01  0 -0.1034E-01  0 -0.3136E-02  0  0.1131E-02
   (  1, 16, 10)  (  2, 23,  7)  (  2, 16,  9)  (  2,  6, 10)  (  2,  6, 11)
  0  0.2894E-03  1 -0.8145E-01  0  0.1593E-01  0  0.2767E-02  0  0.5644E-03
   (  2,  5, 14)  (  2, 40, 33)  (  2, 40, 33)  (  2, 40, 33)  (  2, 40, 31)
  1 -0.4114E-01  0 -0.4439E-02  0 -0.1260E-02  0 -0.3057E-03  1 -0.1722E-01
   (  2, 34, 32)  (  2, 51, 39)  (  2, 51, 39)  (  2, 51, 39)  (  1, 36, 32)
  0 -0.4907E-03  1 -0.6900E-02  0  0.1180E-03  1  0.5575E-02  0  0.1050E-03
   (  1, 36, 32)  (  2,  6, 31)  (  2,  5, 14)  (  2,  6, 31)  (  2,  5, 31)
  1 -0.4484E-01  0 -0.4553E-02  0 -0.1195E-02  0 -0.2678E-03  1  0.3201E-02
   (  2, 36, 32)  (  2, 34, 33)  (  2, 35, 33)  (  2, 29, 37)  (  2,  6, 31)
  0  0.2988E-03  1 -0.2609E-02  0 -0.9026E-04  1  0.2054E-02  0  0.4768E-04
   (  2,  6, 31)  (  2,  6, 31)  (  2,  6, 31)  (  2,  6, 31)  (  2,  6, 31)
  1 -0.1601E-02  0 -0.3798E-04  1  0.1247E-02  0  0.2879E-04  1 -0.9692E-03
   (  2,  6, 31)  (  2,  6, 31)  (  2,  6, 31)  (  2,  6, 31)  (  2,  6, 31)

 MAXIMUM RESIDUAL FOR EACH ITERATION (1 INDICATES THE FIRST INNER ITERATION):

    RESIDUAL       RESIDUAL       RESIDUAL       RESIDUAL       RESIDUAL    
   LAYER,ROW,COL  LAYER,ROW,COL  LAYER,ROW,COL  LAYER,ROW,COL  LAYER,ROW,COL
 ---------------------------------------------------------------------------
  1  0.3534E-03  0 -0.9832E-04  0 -0.2916E-04  0  0.9595E-05  0  0.2979E-05
   (  2, 23,  7)  (  1, 16, 10)  (  1, 16, 10)  (  2, 22,  7)  (  2, 16, 10)
  0 -0.7188E-06  1  0.1265E-01  0 -0.1323E-02  0 -0.2303E-03  0  0.5494E-04
   (  2, 14,  7)  (  1, 34, 32)  (  2, 34, 32)  (  2, 34, 32)  (  1, 34, 32)
  1  0.2729E-04  0  0.9711E-05  0  0.1911E-05  0  0.6082E-06  1  0.2109E-05
   (  2, 34, 32)  (  2, 33, 33)  (  2, 35, 31)  (  2, 32, 34)  (  2, 36, 32)
  0  0.6837E-06  1  0.1916E-05  0  0.4754E-06  1 -0.2748E-04  0 -0.9984E-05
   (  2, 36, 32)  (  1, 36, 32)  (  1, 36, 32)  (  2, 36, 32)  (  2, 36, 32)
  1  0.2646E-04  0  0.9360E-05  0  0.1684E-05  0  0.5302E-06  1  0.2528E-06
   (  2, 36, 32)  (  2, 37, 31)  (  2, 37, 31)  (  2, 34, 34)  (  2, 37, 31)
  0  0.1034E-06  1 -0.1266E-06  0 -0.6862E-07  1  0.1112E-06  0  0.4825E-07
   (  2, 37, 31)  (  2,  7, 29)  (  2,  7, 29)  (  2,  7, 29)  (  2,  7, 29)
  1 -0.8375E-07  0 -0.4189E-07  1  0.6769E-07  0  0.3016E-07  1 -0.5118E-07
   (  2,  7, 29)  (  2,  7, 29)  (  2,  7, 29)  (  2,  7, 29)  (  2,  7, 29)



 OUTPUT CONTROL FOR STRESS PERIOD    2   TIME STEP   54
    SAVE HEAD FOR ALL LAYERS
    SAVE DRAWDOWN FOR ALL LAYERS
    SAVE BUDGET
    PRINT BUDGET
 UBDSV1 SAVING "         STORAGE" ON UNIT   9 AT TIME STEP 54, STRESS PERIOD   2
 UBDSV2 SAVING "   CONSTANT HEAD" ON UNIT   9 AT TIME STEP 54, STRESS PERIOD   2
 UBDSV1 SAVING "FLOW RIGHT FACE " ON UNIT   9 AT TIME STEP 54, STRESS PERIOD   2
 UBDSV1 SAVING "FLOW FRONT FACE " ON UNIT   9 AT TIME STEP 54, STRESS PERIOD   2
 UBDSV1 SAVING "FLOW LOWER FACE " ON UNIT   9 AT TIME STEP 54, STRESS PERIOD   2
 UBDSV4 SAVING "           WELLS" ON UNIT   9 AT TIME STEP 54, STRESS PERIOD   2
 UBDSV4 SAVING "   RIVER LEAKAGE" ON UNIT   9 AT TIME STEP 54, STRESS PERIOD   2
 UBDSV3 SAVING "              ET" ON UNIT   9 AT TIME STEP 54, STRESS PERIOD   2
 UBDSV4 SAVING " HEAD DEP BOUNDS" ON UNIT   9 AT TIME STEP 54, STRESS PERIOD   2
 UBDSV3 SAVING "        RECHARGE" ON UNIT   9 AT TIME STEP 54, STRESS PERIOD   2
 SOLVING FOR ZETA FOR LAYER     1 ZONE     2
     2 CALLS TO PCG ROUTINE FOR TIME STEP  54 IN STRESS PERIOD    2
     4 TOTAL ITERATIONS

 MAXIMUM HEAD CHANGE FOR EACH ITERATION (1 INDICATES THE FIRST INNER ITERATION):

    HEAD CHANGE    HEAD CHANGE    HEAD CHANGE    HEAD CHANGE    HEAD CHANGE 
   LAYER,ROW,COL  LAYER,ROW,COL  LAYER,ROW,COL  LAYER,ROW,COL  LAYER,ROW,COL
 ---------------------------------------------------------------------------
  1   29.44      0  0.2534E-01  0 -0.2246E-03  1  0.2066E-05
   (  1, 20,  9)  (  1, 24,  6)  (  1, 21,  4)  (  1, 24,  5)

 MAXIMUM RESIDUAL FOR EACH ITERATION (1 INDICATES THE FIRST INNER ITERATION):

    RESIDUAL       RESIDUAL       RESIDUAL       RESIDUAL       RESIDUAL    
   LAYER,ROW,COL  LAYER,ROW,COL  LAYER,ROW,COL  LAYER,ROW,COL  LAYER,ROW,COL
 ---------------------------------------------------------------------------
  1 -0.7661E-05  0  0.7257E-07  0 -0.7352E-09  1 -0.1203E-10
   (  1, 24,  6)  (  1, 21,  4)  (  1, 24,  5)  (  1, 24,  5)


 SOLVING FOR ZETA FOR LAYER     2 ZONE     2
     2 CALLS TO PCG ROUTINE FOR TIME STEP  54 IN STRESS PERIOD    2
     5 TOTAL ITERATIONS

 MAXIMUM HEAD CHANGE FOR EACH ITERATION (1 INDICATES THE FIRST INNER ITERATION):

    HEAD CHANGE    HEAD CHANGE    HEAD CHANGE    HEAD CHANGE    HEAD CHANGE 
   LAYER,ROW,COL  LAYER,ROW,COL  LAYER,ROW,COL  LAYER,ROW,COL  LAYER,ROW,COL
 ---------------------------------------------------------------------------
  1   3.746      0  0.5962E-01  0  0.1341E-02  0  0.1162E-04  1 -0.2925E-06
   (  1,  7,  8)  (  1, 24,  7)  (  1, 23,  8)  (  1, 24,  7)  (  1,  7,  8)

 MAXIMUM RESIDUAL FOR EACH ITERATION (1 INDICATES THE FIRST INNER ITERATION):

    RESIDUAL       RESIDUAL       RESIDUAL       RESIDUAL       RESIDUAL    
   LAYER,ROW,COL  LAYER,ROW,COL  LAYER,ROW,COL  LAYER,ROW,COL  LAYER,ROW,COL
 ---------------------------------------------------------------------------
  1 -0.2065E-04  0 -0.5089E-06  0 -0.4300E-08  0 -0.4676E-10  1  0.1220E-11
   (  1, 24,  7)  (  1, 23,  8)  (  1, 24,  7)  (  1, 23,  8)  (  1,  8,  7)


 UBUDSV SAVING "      ZETASRF  1" ON UNIT170 AT TIME STEP 54, STRESS PERIOD    2


                      VOLUMETRIC SWI ZONE BUDGET FOR ENTIRE MODEL
                     AT END OF TIME STEP   54 IN STRESS PERIOD   2
                                      ZONE     1
  -----------------------------------------------------------------------------------

        CUMULATIVE VOLUMES      L**3       RATES FOR THIS TIME STEP      L**3/T
        ------------------                 ------------------------

              IN:                                      IN:
              ---                                      ---
             BOUNDARIES =   695404544.0000            BOUNDARIES =           0.2007
          CONSTANT HEAD =           0.0000         CONSTANT HEAD =           0.0000
            ZONE CHANGE =   174673952.0000           ZONE CHANGE =       6.7590E-02
       ZONE CHG TIP/TOE =     8241375.0000      ZONE CHG TIP/TOE =       1.7618E-03
            ZONE MIXING =           0.0000           ZONE MIXING =           0.0000

               TOTAL IN =   878319872.0000              TOTAL IN =           0.2701

             OUT:                                     OUT:
             ----                                     ----
             BOUNDARIES =   775153472.0000            BOUNDARIES =           0.2808
          CONSTANT HEAD =           0.0000         CONSTANT HEAD =           0.0000
            ZONE CHANGE =    28572398.0000           ZONE CHANGE =       6.7078E-03
       ZONE CHG TIP/TOE =     6795540.0000      ZONE CHG TIP/TOE =       1.6364E-03
            ZONE MIXING =      621744.8125           ZONE MIXING =           0.0000

              TOTAL OUT =   811143168.0000             TOTAL OUT =           0.2891

               IN - OUT =    67176704.0000              IN - OUT =      -1.9061E-02

    PERCENT DISCREPANCY =           7.95     PERCENT DISCREPANCY =          -6.82



                      VOLUMETRIC SWI ZONE BUDGET FOR ENTIRE MODEL
                     AT END OF TIME STEP   54 IN STRESS PERIOD   2
                                      ZONE     2
  -----------------------------------------------------------------------------------

        CUMULATIVE VOLUMES      L**3       RATES FOR THIS TIME STEP      L**3/T
        ------------------                 ------------------------

              IN:                                      IN:
              ---                                      ---
             BOUNDARIES =    66090244.0000            BOUNDARIES =           0.1143
          CONSTANT HEAD =           0.0000         CONSTANT HEAD =           0.0000
            ZONE CHANGE =    24718126.0000           ZONE CHANGE =       6.3826E-03
       ZONE CHG TIP/TOE =    13852151.0000      ZONE CHG TIP/TOE =       1.3023E-02
            ZONE MIXING =      621744.8125           ZONE MIXING =           0.0000

               TOTAL IN =   105282272.0000              TOTAL IN =           0.1337

             OUT:                                     OUT:
             ----                                     ----
             BOUNDARIES =    61107484.0000            BOUNDARIES =       8.2336E-02
          CONSTANT HEAD =           0.0000         CONSTANT HEAD =           0.0000
            ZONE CHANGE =    43496256.0000           ZONE CHANGE =       3.9253E-02
       ZONE CHG TIP/TOE =     5094268.5000      ZONE CHG TIP/TOE =       1.0147E-03
            ZONE MIXING =           0.0000           ZONE MIXING =           0.0000

              TOTAL OUT =   109698008.0000             TOTAL OUT =           0.1226

               IN - OUT =    -4415736.0000              IN - OUT =       1.1059E-02

    PERCENT DISCREPANCY =          -4.11     PERCENT DISCREPANCY =           8.63


 HEAD WILL BE SAVED ON UNIT   37 AT END OF TIME STEP   54, STRESS PERIOD    2

 DRAWDOWN WILL BE SAVED ON UNIT   38 AT END OF TIME STEP   54, STRESS PERIOD    2
1
  VOLUMETRIC BUDGET FOR ENTIRE MODEL AT END OF TIME STEP   54, STRESS PERIOD   2
  ------------------------------------------------------------------------------

     CUMULATIVE VOLUMES      L**3       RATES FOR THIS TIME STEP      L**3/T
     ------------------                 ------------------------

           IN:                                      IN:
           ---                                      ---
             STORAGE =    69345224.0000               STORAGE =       4.8206E-02
       CONSTANT HEAD =           0.0000         CONSTANT HEAD =           0.0000
               WELLS =           0.0000                 WELLS =           0.0000
       RIVER LEAKAGE =   145635264.0000         RIVER LEAKAGE =       4.1000E-02
                  ET =           0.0000                    ET =           0.0000
     HEAD DEP BOUNDS =    75460360.0000       HEAD DEP BOUNDS =           0.1174
            RECHARGE =   583036480.0000              RECHARGE =           0.1771
          SWIADDTOCH =           0.0000            SWIADDTOCH =           0.0000

            TOTAL IN =   873477312.0000              TOTAL IN =           0.3837

          OUT:                                     OUT:
          ----                                     ----
             STORAGE =       48011.1094               STORAGE =       5.9060E-05
       CONSTANT HEAD =           0.0000         CONSTANT HEAD =           0.0000
               WELLS =   329488096.0000                 WELLS =           0.3800
       RIVER LEAKAGE =    21630804.0000         RIVER LEAKAGE =           0.0000
                  ET =   166413648.0000                    ET =           0.0000
     HEAD DEP BOUNDS =   355909440.0000       HEAD DEP BOUNDS =       3.6776E-03
            RECHARGE =           0.0000              RECHARGE =           0.0000
          SWIADDTOCH =           0.0000            SWIADDTOCH =           0.0000

           TOTAL OUT =   873489984.0000             TOTAL OUT =           0.3837

            IN - OUT =      -12672.0000              IN - OUT =      -2.9802E-08

 PERCENT DISCREPANCY =          -0.00     PERCENT DISCREPANCY =          -0.00






         TIME SUMMARY AT END OF TIME STEP   54 IN STRESS PERIOD    2
                    SECONDS     MINUTES      HOURS       DAYS        YEARS
                    -----------------------------------------------------------
   TIME STEP LENGTH 1.57680E+07 2.62800E+05  4380.0      182.50     0.49966    
 STRESS PERIOD TIME 8.51472E+08 1.41912E+07 2.36520E+05  9855.0      26.982    
         TOTAL TIME 4.00508E+09 6.67513E+07 1.11252E+06  46355.      126.91    
1
 
 SOLVING FOR HEAD 
    17 CALLS TO PCG ROUTINE FOR TIME STEP  55 IN STRESS PERIOD    2
    39 TOTAL ITERATIONS

 MAXIMUM HEAD CHANGE FOR EACH ITERATION (1 INDICATES THE FIRST INNER ITERATION):

    HEAD CHANGE    HEAD CHANGE    HEAD CHANGE    HEAD CHANGE    HEAD CHANGE 
   LAYER,ROW,COL  LAYER,ROW,COL  LAYER,ROW,COL  LAYER,ROW,COL  LAYER,ROW,COL
 ---------------------------------------------------------------------------
  1 -0.1898      0  0.7538E-01  0 -0.1721E-01  0 -0.4984E-02  0 -0.1080E-02
   (  1, 19, 10)  (  2, 13,  9)  (  2, 14,  9)  (  1,  9, 10)  (  2, 13,  7)
  0  0.4995E-03  1  0.2082E-01  0  0.5930E-02  0  0.1340E-02  0  0.3438E-03
   (  2,  6, 10)  (  2, 13, 33)  (  2, 51, 39)  (  2, 51, 39)  (  2, 51, 39)
  1 -0.1756E-01  0 -0.5068E-03  1  0.1084E-01  0  0.3393E-03  1 -0.6796E-02
   (  2, 51, 39)  (  2, 51, 39)  (  2, 51, 39)  (  2, 51, 39)  (  2, 51, 39)
  0 -0.1623E-03  1  0.4772E-02  0  0.1038E-03  1 -0.4157E-02  0 -0.7870E-04
   (  2, 51, 39)  (  2,  6, 31)  (  2,  6, 31)  (  2,  6, 31)  (  2,  6, 31)
  1  0.3610E-02  0  0.7060E-04  1 -0.3135E-02  0 -0.6337E-04  1  0.2716E-02
   (  2,  6, 31)  (  2,  6, 31)  (  2,  6, 31)  (  2,  6, 31)  (  2,  6, 31)
  0  0.5821E-04  1 -0.2352E-02  0 -0.5213E-04  1  0.2033E-02  0  0.4687E-04
   (  2,  6, 31)  (  2,  6, 31)  (  2,  6, 31)  (  2,  6, 31)  (  2,  6, 31)
  1 -0.1757E-02  0 -0.4139E-04  1  0.1516E-02  0  0.3665E-04  1 -0.1308E-02
   (  2,  6, 31)  (  2,  6, 31)  (  2,  6, 31)  (  2,  6, 31)  (  2,  6, 31)
  0 -0.3206E-04  1  0.1127E-02  0  0.2811E-04  1 -0.9713E-03
   (  2,  6, 31)  (  2,  6, 31)  (  2,  6, 31)  (  2,  6, 31)

 MAXIMUM RESIDUAL FOR EACH ITERATION (1 INDICATES THE FIRST INNER ITERATION):

    RESIDUAL       RESIDUAL       RESIDUAL       RESIDUAL       RESIDUAL    
   LAYER,ROW,COL  LAYER,ROW,COL  LAYER,ROW,COL  LAYER,ROW,COL  LAYER,ROW,COL
 ---------------------------------------------------------------------------
  1  0.4923E-03  0  0.1795E-03  0 -0.4047E-04  0 -0.1324E-04  0  0.4394E-05
   (  1, 10,  9)  (  2, 10,  9)  (  1, 19, 10)  (  1, 19, 10)  (  2, 19, 10)
  0  0.1769E-05  1 -0.4617E-05  0  0.2124E-05  0  0.5280E-06  0  0.1215E-06
   (  2, 19, 10)  (  2, 12, 20)  (  2, 12, 21)  (  2, 12, 21)  (  2, 13, 20)
  1  0.9081E-06  0  0.2941E-06  1 -0.4243E-06  0 -0.2033E-06  1 -0.2821E-06
   (  2, 14, 32)  (  2, 13, 32)  (  2, 14, 32)  (  2, 13, 32)  (  2,  7, 29)
  0 -0.1354E-06  1  0.2467E-06  0  0.1236E-06  1 -0.2187E-06  0 -0.9868E-07
   (  2,  7, 29)  (  2,  7, 29)  (  2,  7, 29)  (  2,  7, 29)  (  2,  7, 29)
  1  0.1848E-06  0  0.8719E-07  1 -0.1611E-06  0 -0.7212E-07  1  0.1374E-06
   (  2,  7, 29)  (  2,  7, 29)  (  2,  7, 29)  (  2,  7, 29)  (  2,  7, 29)
  0  0.6388E-07  1 -0.1196E-06  0 -0.5416E-07  1  0.1027E-06  0  0.4760E-07
   (  2,  7, 29)  (  2,  7, 29)  (  2,  7, 29)  (  2,  7, 29)  (  2,  7, 29)
  1 -0.8912E-07  0 -0.4070E-07  1  0.7665E-07  0  0.3549E-07  1 -0.6627E-07
   (  2,  7, 29)  (  2,  7, 29)  (  2,  7, 29)  (  2,  7, 29)  (  2,  7, 29)
  0 -0.3042E-07  1  0.5699E-07  0  0.2638E-07  1 -0.4917E-07
   (  2,  7, 29)  (  2,  7, 29)  (  2,  7, 29)  (  2,  7, 29)



 OUTPUT CONTROL FOR STRESS PERIOD    2   TIME STEP   55
    SAVE HEAD FOR ALL LAYERS
    SAVE DRAWDOWN FOR ALL LAYERS
    SAVE BUDGET
    PRINT BUDGET
 UBDSV1 SAVING "         STORAGE" ON UNIT   9 AT TIME STEP 55, STRESS PERIOD   2
 UBDSV2 SAVING "   CONSTANT HEAD" ON UNIT   9 AT TIME STEP 55, STRESS PERIOD   2
 UBDSV1 SAVING "FLOW RIGHT FACE " ON UNIT   9 AT TIME STEP 55, STRESS PERIOD   2
 UBDSV1 SAVING "FLOW FRONT FACE " ON UNIT   9 AT TIME STEP 55, STRESS PERIOD   2
 UBDSV1 SAVING "FLOW LOWER FACE " ON UNIT   9 AT TIME STEP 55, STRESS PERIOD   2
 UBDSV4 SAVING "           WELLS" ON UNIT   9 AT TIME STEP 55, STRESS PERIOD   2
 UBDSV4 SAVING "   RIVER LEAKAGE" ON UNIT   9 AT TIME STEP 55, STRESS PERIOD   2
 UBDSV3 SAVING "              ET" ON UNIT   9 AT TIME STEP 55, STRESS PERIOD   2
 UBDSV4 SAVING " HEAD DEP BOUNDS" ON UNIT   9 AT TIME STEP 55, STRESS PERIOD   2
 UBDSV3 SAVING "        RECHARGE" ON UNIT   9 AT TIME STEP 55, STRESS PERIOD   2
 SOLVING FOR ZETA FOR LAYER     1 ZONE     2
     2 CALLS TO PCG ROUTINE FOR TIME STEP  55 IN STRESS PERIOD    2
     4 TOTAL ITERATIONS

 MAXIMUM HEAD CHANGE FOR EACH ITERATION (1 INDICATES THE FIRST INNER ITERATION):

    HEAD CHANGE    HEAD CHANGE    HEAD CHANGE    HEAD CHANGE    HEAD CHANGE 
   LAYER,ROW,COL  LAYER,ROW,COL  LAYER,ROW,COL  LAYER,ROW,COL  LAYER,ROW,COL
 ---------------------------------------------------------------------------
  1  -6.682      0  0.1893E-01  0 -0.2137E-03  1 -0.2260E-05
   (  1, 20, 10)  (  1, 24,  6)  (  1, 21,  4)  (  1,  9,  5)

 MAXIMUM RESIDUAL FOR EACH ITERATION (1 INDICATES THE FIRST INNER ITERATION):

    RESIDUAL       RESIDUAL       RESIDUAL       RESIDUAL       RESIDUAL    
   LAYER,ROW,COL  LAYER,ROW,COL  LAYER,ROW,COL  LAYER,ROW,COL  LAYER,ROW,COL
 ---------------------------------------------------------------------------
  1 -0.5702E-05  0  0.6907E-07  0  0.6559E-09  1 -0.1068E-10
   (  1, 24,  6)  (  1, 21,  4)  (  1,  9,  5)  (  1, 24,  5)


 SOLVING FOR ZETA FOR LAYER     2 ZONE     2
     2 CALLS TO PCG ROUTINE FOR TIME STEP  55 IN STRESS PERIOD    2
     4 TOTAL ITERATIONS

 MAXIMUM HEAD CHANGE FOR EACH ITERATION (1 INDICATES THE FIRST INNER ITERATION):

    HEAD CHANGE    HEAD CHANGE    HEAD CHANGE    HEAD CHANGE    HEAD CHANGE 
   LAYER,ROW,COL  LAYER,ROW,COL  LAYER,ROW,COL  LAYER,ROW,COL  LAYER,ROW,COL
 ---------------------------------------------------------------------------
  1   7.689      0  0.8206E-01  0 -0.6468E-03  1  0.7926E-05
   (  1, 10,  9)  (  1, 11,  8)  (  1, 22,  9)  (  1, 26,  6)

 MAXIMUM RESIDUAL FOR EACH ITERATION (1 INDICATES THE FIRST INNER ITERATION):

    RESIDUAL       RESIDUAL       RESIDUAL       RESIDUAL       RESIDUAL    
   LAYER,ROW,COL  LAYER,ROW,COL  LAYER,ROW,COL  LAYER,ROW,COL  LAYER,ROW,COL
 ---------------------------------------------------------------------------
  1 -0.2967E-04  0 -0.2041E-06  0  0.2913E-08  1 -0.5160E-10
   (  1, 11,  8)  (  1, 11,  9)  (  1, 11,  8)  (  1, 25,  7)


 UBUDSV SAVING "      ZETASRF  1" ON UNIT170 AT TIME STEP 55, STRESS PERIOD    2


                      VOLUMETRIC SWI ZONE BUDGET FOR ENTIRE MODEL
                     AT END OF TIME STEP   55 IN STRESS PERIOD   2
                                      ZONE     1
  -----------------------------------------------------------------------------------

        CUMULATIVE VOLUMES      L**3       RATES FOR THIS TIME STEP      L**3/T
        ------------------                 ------------------------

              IN:                                      IN:
              ---                                      ---
             BOUNDARIES =   698571136.0000            BOUNDARIES =           0.2008
          CONSTANT HEAD =           0.0000         CONSTANT HEAD =           0.0000
            ZONE CHANGE =   175687456.0000           ZONE CHANGE =       6.4276E-02
       ZONE CHG TIP/TOE =     8344113.5000      ZONE CHG TIP/TOE =       6.5156E-03
            ZONE MIXING =           0.0000           ZONE MIXING =           0.0000

               TOTAL IN =   882602688.0000              TOTAL IN =           0.2716

             OUT:                                     OUT:
             ----                                     ----
             BOUNDARIES =   779272000.0000            BOUNDARIES =           0.2612
          CONSTANT HEAD =           0.0000         CONSTANT HEAD =           0.0000
            ZONE CHANGE =    28678130.0000           ZONE CHANGE =       6.7054E-03
       ZONE CHG TIP/TOE =     6866783.5000      ZONE CHG TIP/TOE =       4.5182E-03
            ZONE MIXING =      621744.8125           ZONE MIXING =           0.0000

              TOTAL OUT =   815438656.0000             TOTAL OUT =           0.2724

               IN - OUT =    67164032.0000              IN - OUT =      -8.0338E-04

    PERCENT DISCREPANCY =           7.91     PERCENT DISCREPANCY =          -0.30



                      VOLUMETRIC SWI ZONE BUDGET FOR ENTIRE MODEL
                     AT END OF TIME STEP   55 IN STRESS PERIOD   2
                                      ZONE     2
  -----------------------------------------------------------------------------------

        CUMULATIVE VOLUMES      L**3       RATES FOR THIS TIME STEP      L**3/T
        ------------------                 ------------------------

              IN:                                      IN:
              ---                                      ---
             BOUNDARIES =    67899848.0000            BOUNDARIES =           0.1148
          CONSTANT HEAD =           0.0000         CONSTANT HEAD =           0.0000
            ZONE CHANGE =    24804742.0000           ZONE CHANGE =       5.4931E-03
       ZONE CHG TIP/TOE =    13933126.0000      ZONE CHG TIP/TOE =       5.1354E-03
            ZONE MIXING =      621744.8125           ZONE MIXING =           0.0000

               TOTAL IN =   107259456.0000              TOTAL IN =           0.1254

             OUT:                                     OUT:
             ----                                     ----
             BOUNDARIES =    62712124.0000            BOUNDARIES =           0.1018
          CONSTANT HEAD =           0.0000         CONSTANT HEAD =           0.0000
            ZONE CHANGE =    43899180.0000           ZONE CHANGE =       2.5553E-02
       ZONE CHG TIP/TOE =     5175378.0000      ZONE CHG TIP/TOE =       5.1439E-03
            ZONE MIXING =           0.0000           ZONE MIXING =           0.0000

              TOTAL OUT =   111786688.0000             TOTAL OUT =           0.1325

               IN - OUT =    -4527232.0000              IN - OUT =      -7.0701E-03

    PERCENT DISCREPANCY =          -4.13     PERCENT DISCREPANCY =          -5.48


 HEAD WILL BE SAVED ON UNIT   37 AT END OF TIME STEP   55, STRESS PERIOD    2

 DRAWDOWN WILL BE SAVED ON UNIT   38 AT END OF TIME STEP   55, STRESS PERIOD    2
1
  VOLUMETRIC BUDGET FOR ENTIRE MODEL AT END OF TIME STEP   55, STRESS PERIOD   2
  ------------------------------------------------------------------------------

     CUMULATIVE VOLUMES      L**3       RATES FOR THIS TIME STEP      L**3/T
     ------------------                 ------------------------

           IN:                                      IN:
           ---                                      ---
             STORAGE =    70093704.0000               STORAGE =       4.7468E-02
       CONSTANT HEAD =           0.0000         CONSTANT HEAD =           0.0000
               WELLS =           0.0000                 WELLS =           0.0000
       RIVER LEAKAGE =   146281760.0000         RIVER LEAKAGE =       4.1000E-02
                  ET =           0.0000                    ET =           0.0000
     HEAD DEP BOUNDS =    77321088.0000       HEAD DEP BOUNDS =           0.1180
            RECHARGE =   585829504.0000              RECHARGE =           0.1771
          SWIADDTOCH =           0.0000            SWIADDTOCH =           0.0000

            TOTAL IN =   879526016.0000              TOTAL IN =           0.3836

          OUT:                                     OUT:
          ----                                     ----
             STORAGE =       49519.7734               STORAGE =       9.5679E-05
       CONSTANT HEAD =           0.0000         CONSTANT HEAD =           0.0000
               WELLS =   335479936.0000                 WELLS =           0.3800
       RIVER LEAKAGE =    21630804.0000         RIVER LEAKAGE =           0.0000
                  ET =   166413648.0000                    ET =           0.0000
     HEAD DEP BOUNDS =   355964800.0000       HEAD DEP BOUNDS =       3.5100E-03
            RECHARGE =           0.0000              RECHARGE =           0.0000
          SWIADDTOCH =           0.0000            SWIADDTOCH =           0.0000

           TOTAL OUT =   879538688.0000             TOTAL OUT =           0.3836

            IN - OUT =      -12672.0000              IN - OUT =           0.0000

 PERCENT DISCREPANCY =          -0.00     PERCENT DISCREPANCY =           0.00






         TIME SUMMARY AT END OF TIME STEP   55 IN STRESS PERIOD    2
                    SECONDS     MINUTES      HOURS       DAYS        YEARS
                    -----------------------------------------------------------
   TIME STEP LENGTH 1.57680E+07 2.62800E+05  4380.0      182.50     0.49966    
 STRESS PERIOD TIME 8.67240E+08 1.44540E+07 2.40900E+05  10038.      27.481    
         TOTAL TIME 4.02084E+09 6.70141E+07 1.11690E+06  46538.      127.41    
1
 
 SOLVING FOR HEAD 

 CELL CONVERSIONS FOR ITER.=  2  LAYER=  1  STEP= 56  PERIOD=   2   (ROW,COL)
    DRY( 11, 29)   
    32 CALLS TO PCG ROUTINE FOR TIME STEP  56 IN STRESS PERIOD    2
    69 TOTAL ITERATIONS

 MAXIMUM HEAD CHANGE FOR EACH ITERATION (1 INDICATES THE FIRST INNER ITERATION):

    HEAD CHANGE    HEAD CHANGE    HEAD CHANGE    HEAD CHANGE    HEAD CHANGE 
   LAYER,ROW,COL  LAYER,ROW,COL  LAYER,ROW,COL  LAYER,ROW,COL  LAYER,ROW,COL
 ---------------------------------------------------------------------------
  1 -0.2501      0  0.6929E-01  0 -0.1586E-01  0 -0.3452E-02  0 -0.1031E-02
   (  1, 21,  8)  (  2, 22,  9)  (  2, 20,  8)  (  2, 10,  8)  (  2, 24,  8)
  0  0.4133E-03  1 -0.3875E-01  0 -0.9193E-02  0  0.1451E-02  0  0.4829E-03
   (  2,  6,  8)  (  2, 11, 29)  (  2, 10, 31)  (  2, 13, 33)  (  2, 11, 33)
  1 -0.1611E-01  0 -0.5569E-03  1  0.1167E-01  0  0.4170E-03  1 -0.8577E-02
   (  2, 51, 39)  (  2, 51, 39)  (  2, 51, 39)  (  2, 51, 39)  (  2, 51, 39)
  0 -0.2337E-03  1  0.6287E-02  0  0.1329E-03  1 -0.4646E-02  0 -0.7529E-04
   (  2, 51, 39)  (  2, 51, 39)  (  2, 51, 39)  (  2, 51, 39)  (  2, 51, 39)
  1  0.3655E-02  0  0.5915E-04  1 -0.3493E-02  0 -0.5926E-04  1  0.3330E-02
   (  2,  6, 31)  (  2,  6, 31)  (  2,  6, 31)  (  2,  6, 31)  (  2,  6, 31)
  0  0.6188E-04  1 -0.3171E-02  0 -0.6363E-04  1  0.3014E-02  0  0.6483E-04
   (  2,  6, 31)  (  2,  6, 31)  (  2,  6, 31)  (  2,  6, 31)  (  2,  6, 31)
  1 -0.2863E-02  0 -0.6462E-04  1  0.2715E-02  0  0.6388E-04  1 -0.2574E-02
   (  2,  6, 31)  (  2,  6, 31)  (  2,  6, 31)  (  2,  6, 31)  (  2,  6, 31)
  0 -0.6222E-04  1  0.2438E-02  0  0.6043E-04  1 -0.2308E-02  0 -0.5817E-04
   (  2,  6, 31)  (  2,  6, 31)  (  2,  6, 31)  (  2,  6, 31)  (  2,  6, 31)
  1  0.2184E-02  0  0.5598E-04  1 -0.2066E-02  0 -0.5354E-04  1  0.1953E-02
   (  2,  6, 31)  (  2,  6, 31)  (  2,  6, 31)  (  2,  6, 31)  (  2,  6, 31)
  0  0.5123E-04  1 -0.1847E-02  0 -0.4879E-04  1  0.1745E-02  0  0.4654E-04
   (  2,  6, 31)  (  2,  6, 31)  (  2,  6, 31)  (  2,  6, 31)  (  2,  6, 31)
  1 -0.1649E-02  0 -0.4421E-04  1  0.1558E-02  0  0.4206E-04  1 -0.1471E-02
   (  2,  6, 31)  (  2,  6, 31)  (  2,  6, 31)  (  2,  6, 31)  (  2,  6, 31)
  0 -0.3989E-04  1  0.1389E-02  0  0.3788E-04  1 -0.1311E-02  0 -0.3587E-04
   (  2,  6, 31)  (  2,  6, 31)  (  2,  6, 31)  (  2,  6, 31)  (  2,  6, 31)
  1  0.1238E-02  0  0.3403E-04  1 -0.1168E-02  0 -0.3221E-04  1  0.1103E-02
   (  2,  6, 31)  (  2,  6, 31)  (  2,  6, 31)  (  2,  6, 31)  (  2,  6, 31)
  0  0.3052E-04  1 -0.1041E-02  0 -0.2885E-04  1  0.9820E-03
   (  2,  6, 31)  (  2,  6, 31)  (  2,  6, 31)  (  2,  6, 31)

 MAXIMUM RESIDUAL FOR EACH ITERATION (1 INDICATES THE FIRST INNER ITERATION):

    RESIDUAL       RESIDUAL       RESIDUAL       RESIDUAL       RESIDUAL    
   LAYER,ROW,COL  LAYER,ROW,COL  LAYER,ROW,COL  LAYER,ROW,COL  LAYER,ROW,COL
 ---------------------------------------------------------------------------
  1  0.4841E-03  0  0.1257E-03  0 -0.3145E-04  0 -0.9412E-05  0 -0.3974E-05
   (  2, 21,  7)  (  2, 21,  7)  (  1, 21,  8)  (  2, 20,  9)  (  2, 19, 10)
  0 -0.1399E-05  1  0.2440E-04  0  0.8417E-05  0  0.2181E-05  0  0.5590E-06
   (  2, 21,  7)  (  2, 11, 29)  (  2, 12, 28)  (  2, 10, 30)  (  2, 13, 27)
  1  0.9855E-06  0  0.3615E-06  1 -0.5664E-06  0 -0.2468E-06  1  0.3353E-06
   (  2, 14, 32)  (  2, 13, 32)  (  2, 14, 32)  (  2, 13, 32)  (  2, 14, 32)
  0  0.1262E-06  1  0.2048E-06  0  0.1029E-06  1 -0.1964E-06  0 -0.9202E-07
   (  2, 13, 32)  (  2,  5, 11)  (  2,  7, 29)  (  2,  7, 29)  (  2,  7, 29)
  1  0.1841E-06  0  0.8590E-07  1 -0.1744E-06  0 -0.7770E-07  1  0.1634E-06
   (  2,  7, 29)  (  2,  7, 29)  (  2,  7, 29)  (  2,  7, 29)  (  2,  7, 29)
  0  0.7382E-07  1 -0.1551E-06  0 -0.6901E-07  1  0.1465E-06  0  0.6583E-07
   (  2,  7, 29)  (  2,  7, 29)  (  2,  7, 29)  (  2,  7, 29)  (  2,  7, 29)
  1 -0.1391E-06  0 -0.6219E-07  1  0.1316E-06  0  0.5914E-07  1 -0.1248E-06
   (  2,  7, 29)  (  2,  7, 29)  (  2,  7, 29)  (  2,  7, 29)  (  2,  7, 29)
  0 -0.5599E-07  1  0.1181E-06  0  0.5308E-07  1 -0.1118E-06  0 -0.5026E-07
   (  2,  7, 29)  (  2,  7, 29)  (  2,  7, 29)  (  2,  7, 29)  (  2,  7, 29)
  1  0.1057E-06  0  0.4755E-07  1 -0.9999E-07  0 -0.4503E-07  1  0.9453E-07
   (  2,  7, 29)  (  2,  7, 29)  (  2,  7, 29)  (  2,  7, 29)  (  2,  7, 29)
  0  0.4254E-07  1 -0.8932E-07  0 -0.4027E-07  1  0.8442E-07  0  0.3801E-07
   (  2,  7, 29)  (  2,  7, 29)  (  2,  7, 29)  (  2,  7, 29)  (  2,  7, 29)
  1 -0.7973E-07  0 -0.3596E-07  1  0.7535E-07  0  0.3393E-07  1 -0.7115E-07
   (  2,  7, 29)  (  2,  7, 29)  (  2,  7, 29)  (  2,  7, 29)  (  2,  7, 29)
  0 -0.3210E-07  1  0.6720E-07  0  0.3028E-07  1 -0.6340E-07  0 -0.2862E-07
   (  2,  7, 29)  (  2,  7, 29)  (  2,  7, 29)  (  2,  7, 29)  (  2,  7, 29)
  1  0.5985E-07  0  0.2698E-07  1 -0.5649E-07  0 -0.2550E-07  1  0.5333E-07
   (  2,  7, 29)  (  2,  7, 29)  (  2,  7, 29)  (  2,  7, 29)  (  2,  7, 29)
  0  0.2405E-07  1 -0.5033E-07  0 -0.2272E-07  1  0.4748E-07
   (  2,  7, 29)  (  2,  7, 29)  (  2,  7, 29)  (  2,  7, 29)



 OUTPUT CONTROL FOR STRESS PERIOD    2   TIME STEP   56
    SAVE HEAD FOR ALL LAYERS
    SAVE DRAWDOWN FOR ALL LAYERS
    SAVE BUDGET
    PRINT BUDGET
 UBDSV1 SAVING "         STORAGE" ON UNIT   9 AT TIME STEP 56, STRESS PERIOD   2
 UBDSV2 SAVING "   CONSTANT HEAD" ON UNIT   9 AT TIME STEP 56, STRESS PERIOD   2
 UBDSV1 SAVING "FLOW RIGHT FACE " ON UNIT   9 AT TIME STEP 56, STRESS PERIOD   2
 UBDSV1 SAVING "FLOW FRONT FACE " ON UNIT   9 AT TIME STEP 56, STRESS PERIOD   2
 UBDSV1 SAVING "FLOW LOWER FACE " ON UNIT   9 AT TIME STEP 56, STRESS PERIOD   2
 UBDSV4 SAVING "           WELLS" ON UNIT   9 AT TIME STEP 56, STRESS PERIOD   2
 UBDSV4 SAVING "   RIVER LEAKAGE" ON UNIT   9 AT TIME STEP 56, STRESS PERIOD   2
 UBDSV3 SAVING "              ET" ON UNIT   9 AT TIME STEP 56, STRESS PERIOD   2
 UBDSV4 SAVING " HEAD DEP BOUNDS" ON UNIT   9 AT TIME STEP 56, STRESS PERIOD   2
 UBDSV3 SAVING "        RECHARGE" ON UNIT   9 AT TIME STEP 56, STRESS PERIOD   2
 SOLVING FOR ZETA FOR LAYER     1 ZONE     2
     2 CALLS TO PCG ROUTINE FOR TIME STEP  56 IN STRESS PERIOD    2
     4 TOTAL ITERATIONS

 MAXIMUM HEAD CHANGE FOR EACH ITERATION (1 INDICATES THE FIRST INNER ITERATION):

    HEAD CHANGE    HEAD CHANGE    HEAD CHANGE    HEAD CHANGE    HEAD CHANGE 
   LAYER,ROW,COL  LAYER,ROW,COL  LAYER,ROW,COL  LAYER,ROW,COL  LAYER,ROW,COL
 ---------------------------------------------------------------------------
  1   18.30      0  0.1279      0  0.5969E-03  1 -0.4094E-05
   (  1, 16,  8)  (  1, 14,  9)  (  1, 15,  8)  (  1, 15, 10)

 MAXIMUM RESIDUAL FOR EACH ITERATION (1 INDICATES THE FIRST INNER ITERATION):

    RESIDUAL       RESIDUAL       RESIDUAL       RESIDUAL       RESIDUAL    
   LAYER,ROW,COL  LAYER,ROW,COL  LAYER,ROW,COL  LAYER,ROW,COL  LAYER,ROW,COL
 ---------------------------------------------------------------------------
  1 -0.3873E-04  0 -0.2146E-06  0  0.1200E-08  1  0.1726E-10
   (  1, 14,  9)  (  1, 15,  8)  (  1, 22,  3)  (  1, 21,  4)


 SOLVING FOR ZETA FOR LAYER     2 ZONE     2
     2 CALLS TO PCG ROUTINE FOR TIME STEP  56 IN STRESS PERIOD    2
     4 TOTAL ITERATIONS

 MAXIMUM HEAD CHANGE FOR EACH ITERATION (1 INDICATES THE FIRST INNER ITERATION):

    HEAD CHANGE    HEAD CHANGE    HEAD CHANGE    HEAD CHANGE    HEAD CHANGE 
   LAYER,ROW,COL  LAYER,ROW,COL  LAYER,ROW,COL  LAYER,ROW,COL  LAYER,ROW,COL
 ---------------------------------------------------------------------------
  1   6.858      0  0.5239E-01  0  0.9884E-03  1  0.1093E-04
   (  1, 10,  9)  (  1, 23,  8)  (  1, 24,  7)  (  1, 23,  8)

 MAXIMUM RESIDUAL FOR EACH ITERATION (1 INDICATES THE FIRST INNER ITERATION):

    RESIDUAL       RESIDUAL       RESIDUAL       RESIDUAL       RESIDUAL    
   LAYER,ROW,COL  LAYER,ROW,COL  LAYER,ROW,COL  LAYER,ROW,COL  LAYER,ROW,COL
 ---------------------------------------------------------------------------
  1 -0.1959E-04  0 -0.3326E-06  0 -0.4506E-08  1 -0.7123E-10
   (  1, 23,  8)  (  1, 24,  7)  (  1, 23,  8)  (  1, 24,  7)


 UBUDSV SAVING "      ZETASRF  1" ON UNIT170 AT TIME STEP 56, STRESS PERIOD    2


                      VOLUMETRIC SWI ZONE BUDGET FOR ENTIRE MODEL
                     AT END OF TIME STEP   56 IN STRESS PERIOD   2
                                      ZONE     1
  -----------------------------------------------------------------------------------

        CUMULATIVE VOLUMES      L**3       RATES FOR THIS TIME STEP      L**3/T
        ------------------                 ------------------------

              IN:                                      IN:
              ---                                      ---
             BOUNDARIES =   701728000.0000            BOUNDARIES =           0.2002
          CONSTANT HEAD =           0.0000         CONSTANT HEAD =           0.0000
            ZONE CHANGE =   176768704.0000           ZONE CHANGE =       6.8572E-02
       ZONE CHG TIP/TOE =     8465979.0000      ZONE CHG TIP/TOE =       7.7286E-03
            ZONE MIXING =           0.0000           ZONE MIXING =           0.0000

               TOTAL IN =   886962688.0000              TOTAL IN =           0.2765

             OUT:                                     OUT:
             ----                                     ----
             BOUNDARIES =   783843136.0000            BOUNDARIES =           0.2899
          CONSTANT HEAD =           0.0000         CONSTANT HEAD =           0.0000
            ZONE CHANGE =    28729578.0000           ZONE CHANGE =       3.2628E-03
       ZONE CHG TIP/TOE =     6988093.5000      ZONE CHG TIP/TOE =       7.6934E-03
            ZONE MIXING =      621744.8125           ZONE MIXING =           0.0000

              TOTAL OUT =   820182528.0000             TOTAL OUT =           0.3009

               IN - OUT =    66780160.0000              IN - OUT =      -2.4347E-02

    PERCENT DISCREPANCY =           7.82     PERCENT DISCREPANCY =          -8.43



                      VOLUMETRIC SWI ZONE BUDGET FOR ENTIRE MODEL
                     AT END OF TIME STEP   56 IN STRESS PERIOD   2
                                      ZONE     2
  -----------------------------------------------------------------------------------

        CUMULATIVE VOLUMES      L**3       RATES FOR THIS TIME STEP      L**3/T
        ------------------                 ------------------------

              IN:                                      IN:
              ---                                      ---
             BOUNDARIES =    69723800.0000            BOUNDARIES =           0.1157
          CONSTANT HEAD =           0.0000         CONSTANT HEAD =           0.0000
            ZONE CHANGE =    24856290.0000           ZONE CHANGE =       3.2692E-03
       ZONE CHG TIP/TOE =    14383312.0000      ZONE CHG TIP/TOE =       2.8551E-02
            ZONE MIXING =      621744.8125           ZONE MIXING =           0.0000

               TOTAL IN =   109585152.0000              TOTAL IN =           0.1475

             OUT:                                     OUT:
             ----                                     ----
             BOUNDARIES =    63861724.0000            BOUNDARIES =       7.2907E-02
          CONSTANT HEAD =           0.0000         CONSTANT HEAD =           0.0000
            ZONE CHANGE =    44692468.0000           ZONE CHANGE =       5.0310E-02
       ZONE CHG TIP/TOE =     5297243.5000      ZONE CHG TIP/TOE =       7.7286E-03
            ZONE MIXING =           0.0000           ZONE MIXING =           0.0000

              TOTAL OUT =   113851440.0000             TOTAL OUT =           0.1309

               IN - OUT =    -4266288.0000              IN - OUT =       1.6548E-02

    PERCENT DISCREPANCY =          -3.82     PERCENT DISCREPANCY =          11.89


 HEAD WILL BE SAVED ON UNIT   37 AT END OF TIME STEP   56, STRESS PERIOD    2

 DRAWDOWN WILL BE SAVED ON UNIT   38 AT END OF TIME STEP   56, STRESS PERIOD    2
1
  VOLUMETRIC BUDGET FOR ENTIRE MODEL AT END OF TIME STEP   56, STRESS PERIOD   2
  ------------------------------------------------------------------------------

     CUMULATIVE VOLUMES      L**3       RATES FOR THIS TIME STEP      L**3/T
     ------------------                 ------------------------

           IN:                                      IN:
           ---                                      ---
             STORAGE =    70835984.0000               STORAGE =       4.7075E-02
       CONSTANT HEAD =           0.0000         CONSTANT HEAD =           0.0000
               WELLS =           0.0000                 WELLS =           0.0000
       RIVER LEAKAGE =   146928256.0000         RIVER LEAKAGE =       4.1000E-02
                  ET =           0.0000                    ET =           0.0000
     HEAD DEP BOUNDS =    79189440.0000       HEAD DEP BOUNDS =           0.1185
            RECHARGE =   588619520.0000              RECHARGE =           0.1769
          SWIADDTOCH =           0.0000            SWIADDTOCH =           0.0000

            TOTAL IN =   885573184.0000              TOTAL IN =           0.3835

          OUT:                                     OUT:
          ----                                     ----
             STORAGE =       51890.2383               STORAGE =       1.5033E-04
       CONSTANT HEAD =           0.0000         CONSTANT HEAD =           0.0000
               WELLS =   341471776.0000                 WELLS =           0.3800
       RIVER LEAKAGE =    21630804.0000         RIVER LEAKAGE =           0.0000
                  ET =   166413648.0000                    ET =           0.0000
     HEAD DEP BOUNDS =   356017696.0000       HEAD DEP BOUNDS =       3.3553E-03
            RECHARGE =           0.0000              RECHARGE =           0.0000
          SWIADDTOCH =           0.0000            SWIADDTOCH =           0.0000

           TOTAL OUT =   885585792.0000             TOTAL OUT =           0.3835

            IN - OUT =      -12608.0000              IN - OUT =       2.9802E-08

 PERCENT DISCREPANCY =          -0.00     PERCENT DISCREPANCY =           0.00






         TIME SUMMARY AT END OF TIME STEP   56 IN STRESS PERIOD    2
                    SECONDS     MINUTES      HOURS       DAYS        YEARS
                    -----------------------------------------------------------
   TIME STEP LENGTH 1.57680E+07 2.62800E+05  4380.0      182.50     0.49966    
 STRESS PERIOD TIME 8.83008E+08 1.47168E+07 2.45280E+05  10220.      27.981    
         TOTAL TIME 4.03661E+09 6.72769E+07 1.12128E+06  46720.      127.91    
1
 
 SOLVING FOR HEAD 

 CELL CONVERSIONS FOR ITER.=  2  LAYER=  1  STEP= 57  PERIOD=   2   (ROW,COL)
    DRY( 46, 24)   DRY( 47, 22)   

 CELL CONVERSIONS FOR ITER.=  2  LAYER=  2  STEP= 57  PERIOD=   2   (ROW,COL)
    DRY(  6, 31)   DRY( 57, 31)   

 ISOLATED CELL IS BEING ELIMINATED (LAYER,ROW,COL):     2    58    31
 (PCG7AP)

 CELL CONVERSIONS FOR ITER.=  3  LAYER=  1  STEP= 57  PERIOD=   2   (ROW,COL)
    DRY( 44, 24)   

 CELL CONVERSIONS FOR ITER.=  5  LAYER=  1  STEP= 57  PERIOD=   2   (ROW,COL)
    DRY( 14, 33)   
    23 CALLS TO PCG ROUTINE FOR TIME STEP  57 IN STRESS PERIOD    2
    55 TOTAL ITERATIONS

 MAXIMUM HEAD CHANGE FOR EACH ITERATION (1 INDICATES THE FIRST INNER ITERATION):

    HEAD CHANGE    HEAD CHANGE    HEAD CHANGE    HEAD CHANGE    HEAD CHANGE 
   LAYER,ROW,COL  LAYER,ROW,COL  LAYER,ROW,COL  LAYER,ROW,COL  LAYER,ROW,COL
 ---------------------------------------------------------------------------
  1 -0.2520      0 -0.5275E-01  0 -0.1513E-01  0 -0.3524E-02  0  0.1375E-02
   (  1, 16, 10)  (  2, 21,  9)  (  2,  9,  9)  (  2,  6, 10)  (  2,  6, 11)
  0  0.3751E-03  1 -0.8972E-01  0  0.1144E-01  0  0.2801E-02  0  0.7563E-03
   (  2,  5, 14)  (  2, 47, 22)  (  2, 47, 22)  (  2, 47, 22)  (  2, 47, 22)
  1 -0.6657E-01  0  0.1631E-01  0  0.1951E-02  0  0.3073E-03  1  0.1227E-01
   (  2, 44, 24)  (  2, 44, 24)  (  2, 44, 24)  (  2, 44, 24)  (  2, 51, 39)
  0  0.1619E-03  1 -0.5985E-01  0 -0.7182E-02  0 -0.1062E-02  0 -0.1974E-03
   (  2, 13, 32)  (  2, 14, 33)  (  2, 16, 32)  (  2, 18, 29)  (  2, 22, 27)
  1  0.8582E-02  0  0.3125E-03  1 -0.7421E-02  0 -0.1064E-03  1  0.6324E-02
   (  2, 51, 39)  (  2, 51, 39)  (  2, 51, 39)  (  2, 51, 39)  (  2, 51, 39)
  0  0.6130E-04  1 -0.5408E-02  0 -0.3897E-04  1  0.4622E-02  0  0.2537E-04
   (  2, 51, 39)  (  2, 51, 39)  (  2, 51, 39)  (  2, 51, 39)  (  2, 51, 39)
  1 -0.3959E-02  0 -0.1728E-04  1  0.3388E-02  0  0.1256E-04  1 -0.2904E-02
   (  2, 51, 39)  (  2, 51, 39)  (  2, 51, 39)  (  2, 51, 39)  (  2, 51, 39)
  0 -0.9258E-05  1  0.2488E-02  0  0.7910E-05  1 -0.2135E-02  0 -0.6770E-05
   (  2, 51, 39)  (  2, 51, 39)  (  2, 51, 38)  (  2, 51, 39)  (  2, 51, 38)
  1  0.1832E-02  0  0.5949E-05  1 -0.1573E-02  0 -0.5092E-05  1  0.1351E-02
   (  2, 51, 39)  (  2, 51, 38)  (  2, 51, 39)  (  2, 51, 38)  (  2, 51, 39)
  0  0.4443E-05  1 -0.1162E-02  0 -0.3825E-05  1  0.1069E-02  0  0.3325E-05
   (  2, 51, 38)  (  2, 51, 39)  (  2, 51, 38)  (  2, 57, 33)  (  2, 51, 38)
  1 -0.1038E-02  0 -0.2852E-05  1  0.1009E-02  0  0.2462E-05  1 -0.9821E-03
   (  2, 57, 33)  (  2, 51, 38)  (  2, 57, 33)  (  2, 51, 38)  (  2, 57, 33)

 MAXIMUM RESIDUAL FOR EACH ITERATION (1 INDICATES THE FIRST INNER ITERATION):

    RESIDUAL       RESIDUAL       RESIDUAL       RESIDUAL       RESIDUAL    
   LAYER,ROW,COL  LAYER,ROW,COL  LAYER,ROW,COL  LAYER,ROW,COL  LAYER,ROW,COL
 ---------------------------------------------------------------------------
  1  0.3512E-03  0  0.1307E-03  0 -0.4524E-04  0 -0.1331E-04  0  0.3807E-05
   (  2, 26,  7)  (  2, 28,  6)  (  1, 16, 10)  (  1, 16, 10)  (  2, 16, 10)
  0  0.1128E-05  1  0.3678E-03  0  0.5545E-04  0  0.1306E-04  0  0.3113E-05
   (  2, 16, 10)  (  1, 14, 33)  (  1, 14, 33)  (  1, 14, 33)  (  1, 14, 33)
  1  0.3516E-02  0  0.2913E-03  0  0.4705E-04  0  0.1262E-04  1 -0.8093E-05
   (  1, 14, 33)  (  1, 14, 33)  (  1, 14, 33)  (  1, 14, 33)  (  2, 14, 33)
  0 -0.2551E-05  1  0.3344E-04  0  0.1116E-04  0  0.2278E-05  0  0.5191E-06
   (  2, 14, 33)  (  2, 15, 32)  (  2, 15, 32)  (  2, 15, 32)  (  2, 16, 31)
  1 -0.4518E-06  0 -0.1950E-06  1  0.1542E-06  0  0.7044E-07  1  0.9480E-07
   (  2, 16, 31)  (  2, 16, 31)  (  2,  5, 11)  (  2,  3, 30)  (  2,  5, 11)
  0 -0.4914E-07  1  0.7459E-07  0  0.3476E-07  1  0.5014E-07  0  0.2385E-07
   (  2,  3, 30)  (  2,  5, 11)  (  2,  3, 30)  (  2,  5, 11)  (  2, 52, 37)
  1  0.3959E-07  0 -0.2067E-07  1  0.2872E-07  0  0.1745E-07  1 -0.2431E-07
   (  2,  5, 11)  (  2, 52, 37)  (  2,  5, 11)  (  2, 52, 37)  (  2, 52, 37)
  0 -0.1506E-07  1  0.2090E-07  0  0.1276E-07  1 -0.1792E-07  0 -0.1101E-07
   (  2, 52, 37)  (  2, 52, 37)  (  2, 52, 37)  (  2, 52, 37)  (  2, 52, 37)
  1  0.1542E-07  0  0.9378E-08  1 -0.1325E-07  0 -0.8090E-08  1  0.1141E-07
   (  2, 52, 37)  (  2, 52, 37)  (  2, 52, 37)  (  2, 52, 37)  (  2, 52, 37)
  0  0.6918E-08  1 -0.9816E-08  0 -0.5967E-08  1  0.8474E-08  0  0.5127E-08
   (  2, 52, 37)  (  2, 52, 37)  (  2, 52, 37)  (  2, 52, 37)  (  2, 52, 37)
  1 -0.7299E-08  0 -0.4423E-08  1  0.6288E-08  0  0.3795E-08  1 -0.5429E-08
   (  2, 52, 37)  (  2, 52, 37)  (  2, 52, 37)  (  2, 52, 37)  (  2, 52, 37)



 OUTPUT CONTROL FOR STRESS PERIOD    2   TIME STEP   57
    SAVE HEAD FOR ALL LAYERS
    SAVE DRAWDOWN FOR ALL LAYERS
    SAVE BUDGET
    PRINT BUDGET
 UBDSV1 SAVING "         STORAGE" ON UNIT   9 AT TIME STEP 57, STRESS PERIOD   2
 UBDSV2 SAVING "   CONSTANT HEAD" ON UNIT   9 AT TIME STEP 57, STRESS PERIOD   2
 UBDSV1 SAVING "FLOW RIGHT FACE " ON UNIT   9 AT TIME STEP 57, STRESS PERIOD   2
 UBDSV1 SAVING "FLOW FRONT FACE " ON UNIT   9 AT TIME STEP 57, STRESS PERIOD   2
 UBDSV1 SAVING "FLOW LOWER FACE " ON UNIT   9 AT TIME STEP 57, STRESS PERIOD   2
 UBDSV4 SAVING "           WELLS" ON UNIT   9 AT TIME STEP 57, STRESS PERIOD   2
 UBDSV4 SAVING "   RIVER LEAKAGE" ON UNIT   9 AT TIME STEP 57, STRESS PERIOD   2
 UBDSV3 SAVING "              ET" ON UNIT   9 AT TIME STEP 57, STRESS PERIOD   2
 UBDSV4 SAVING " HEAD DEP BOUNDS" ON UNIT   9 AT TIME STEP 57, STRESS PERIOD   2
 UBDSV3 SAVING "        RECHARGE" ON UNIT   9 AT TIME STEP 57, STRESS PERIOD   2
 SOLVING FOR ZETA FOR LAYER     1 ZONE     2
     2 CALLS TO PCG ROUTINE FOR TIME STEP  57 IN STRESS PERIOD    2
     5 TOTAL ITERATIONS

 MAXIMUM HEAD CHANGE FOR EACH ITERATION (1 INDICATES THE FIRST INNER ITERATION):

    HEAD CHANGE    HEAD CHANGE    HEAD CHANGE    HEAD CHANGE    HEAD CHANGE 
   LAYER,ROW,COL  LAYER,ROW,COL  LAYER,ROW,COL  LAYER,ROW,COL  LAYER,ROW,COL
 ---------------------------------------------------------------------------
  1   32.21      0  0.2266      0  0.2467E-02  0  0.1355E-04  1 -0.3871E-06
   (  1, 18, 10)  (  1, 21,  7)  (  1, 22,  6)  (  1, 23,  6)  (  1, 19,  9)

 MAXIMUM RESIDUAL FOR EACH ITERATION (1 INDICATES THE FIRST INNER ITERATION):

    RESIDUAL       RESIDUAL       RESIDUAL       RESIDUAL       RESIDUAL    
   LAYER,ROW,COL  LAYER,ROW,COL  LAYER,ROW,COL  LAYER,ROW,COL  LAYER,ROW,COL
 ---------------------------------------------------------------------------
  1 -0.7571E-04  0 -0.7972E-06  0 -0.5248E-08  0 -0.8018E-10  1 -0.1232E-11
   (  1, 21,  7)  (  1, 22,  6)  (  1, 23,  6)  (  1, 24,  5)  (  1, 23,  6)


 SOLVING FOR ZETA FOR LAYER     2 ZONE     2
     2 CALLS TO PCG ROUTINE FOR TIME STEP  57 IN STRESS PERIOD    2
     4 TOTAL ITERATIONS

 MAXIMUM HEAD CHANGE FOR EACH ITERATION (1 INDICATES THE FIRST INNER ITERATION):

    HEAD CHANGE    HEAD CHANGE    HEAD CHANGE    HEAD CHANGE    HEAD CHANGE 
   LAYER,ROW,COL  LAYER,ROW,COL  LAYER,ROW,COL  LAYER,ROW,COL  LAYER,ROW,COL
 ---------------------------------------------------------------------------
  1   7.282      0  0.8475E-01  0  0.6868E-03  1  0.9360E-05
   (  1, 22,  9)  (  1, 11,  8)  (  1, 25,  7)  (  1, 26,  6)

 MAXIMUM RESIDUAL FOR EACH ITERATION (1 INDICATES THE FIRST INNER ITERATION):

    RESIDUAL       RESIDUAL       RESIDUAL       RESIDUAL       RESIDUAL    
   LAYER,ROW,COL  LAYER,ROW,COL  LAYER,ROW,COL  LAYER,ROW,COL  LAYER,ROW,COL
 ---------------------------------------------------------------------------
  1 -0.2893E-04  0 -0.2310E-06  0 -0.3483E-08  1 -0.6353E-10
   (  1, 11,  8)  (  1, 25,  7)  (  1, 26,  6)  (  1, 25,  7)


 UBUDSV SAVING "      ZETASRF  1" ON UNIT170 AT TIME STEP 57, STRESS PERIOD    2


                      VOLUMETRIC SWI ZONE BUDGET FOR ENTIRE MODEL
                     AT END OF TIME STEP   57 IN STRESS PERIOD   2
                                      ZONE     1
  -----------------------------------------------------------------------------------

        CUMULATIVE VOLUMES      L**3       RATES FOR THIS TIME STEP      L**3/T
        ------------------                 ------------------------

              IN:                                      IN:
              ---                                      ---
             BOUNDARIES =   704874752.0000            BOUNDARIES =           0.1996
          CONSTANT HEAD =           0.0000         CONSTANT HEAD =           0.0000
            ZONE CHANGE =   177881472.0000           ZONE CHANGE =       7.0571E-02
       ZONE CHG TIP/TOE =     8512755.0000      ZONE CHG TIP/TOE =       2.9665E-03
            ZONE MIXING =           0.0000           ZONE MIXING =           0.0000

               TOTAL IN =   891268992.0000              TOTAL IN =           0.2731

             OUT:                                     OUT:
             ----                                     ----
             BOUNDARIES =   788572928.0000            BOUNDARIES =           0.3000
          CONSTANT HEAD =           0.0000         CONSTANT HEAD =           0.0000
            ZONE CHANGE =    28818080.0000           ZONE CHANGE =       5.6127E-03
       ZONE CHG TIP/TOE =     7025896.0000      ZONE CHG TIP/TOE =       2.3974E-03
            ZONE MIXING =      621744.8125           ZONE MIXING =           0.0000

              TOTAL OUT =   825038656.0000             TOTAL OUT =           0.3080

               IN - OUT =    66230336.0000              IN - OUT =      -3.4867E-02

    PERCENT DISCREPANCY =           7.72     PERCENT DISCREPANCY =         -12.00



                      VOLUMETRIC SWI ZONE BUDGET FOR ENTIRE MODEL
                     AT END OF TIME STEP   57 IN STRESS PERIOD   2
                                      ZONE     2
  -----------------------------------------------------------------------------------

        CUMULATIVE VOLUMES      L**3       RATES FOR THIS TIME STEP      L**3/T
        ------------------                 ------------------------

              IN:                                      IN:
              ---                                      ---
             BOUNDARIES =    71558784.0000            BOUNDARIES =           0.1164
          CONSTANT HEAD =           0.0000         CONSTANT HEAD =           0.0000
            ZONE CHANGE =    24944450.0000           ZONE CHANGE =       5.5910E-03
       ZONE CHG TIP/TOE =    14925541.0000      ZONE CHG TIP/TOE =       3.4388E-02
            ZONE MIXING =      621744.8125           ZONE MIXING =           0.0000

               TOTAL IN =   112050520.0000              TOTAL IN =           0.1564

             OUT:                                     OUT:
             ----                                     ----
             BOUNDARIES =    64850644.0000            BOUNDARIES =       6.2717E-02
          CONSTANT HEAD =           0.0000         CONSTANT HEAD =           0.0000
            ZONE CHANGE =    45700652.0000           ZONE CHANGE =       6.3939E-02
       ZONE CHG TIP/TOE =     5338217.5000      ZONE CHG TIP/TOE =       2.5985E-03
            ZONE MIXING =           0.0000           ZONE MIXING =           0.0000

              TOTAL OUT =   115889512.0000             TOTAL OUT =           0.1293

               IN - OUT =    -3838992.0000              IN - OUT =       2.7099E-02

    PERCENT DISCREPANCY =          -3.37     PERCENT DISCREPANCY =          18.98


 HEAD WILL BE SAVED ON UNIT   37 AT END OF TIME STEP   57, STRESS PERIOD    2

 DRAWDOWN WILL BE SAVED ON UNIT   38 AT END OF TIME STEP   57, STRESS PERIOD    2
1
  VOLUMETRIC BUDGET FOR ENTIRE MODEL AT END OF TIME STEP   57, STRESS PERIOD   2
  ------------------------------------------------------------------------------

     CUMULATIVE VOLUMES      L**3       RATES FOR THIS TIME STEP      L**3/T
     ------------------                 ------------------------

           IN:                                      IN:
           ---                                      ---
             STORAGE =    71574112.0000               STORAGE =       4.6812E-02
       CONSTANT HEAD =           0.0000         CONSTANT HEAD =           0.0000
               WELLS =           0.0000                 WELLS =           0.0000
       RIVER LEAKAGE =   147574752.0000         RIVER LEAKAGE =       4.1000E-02
                  ET =           0.0000                    ET =           0.0000
     HEAD DEP BOUNDS =    81070720.0000       HEAD DEP BOUNDS =           0.1193
            RECHARGE =   591397504.0000              RECHARGE =           0.1762
          SWIADDTOCH =           0.0000            SWIADDTOCH =           0.0000

            TOTAL IN =   891617088.0000              TOTAL IN =           0.3833

          OUT:                                     OUT:
          ----                                     ----
             STORAGE =       53066.4922               STORAGE =       7.4597E-05
       CONSTANT HEAD =           0.0000         CONSTANT HEAD =           0.0000
               WELLS =   347463616.0000                 WELLS =           0.3800
       RIVER LEAKAGE =    21630804.0000         RIVER LEAKAGE =           0.0000
                  ET =   166413648.0000                    ET =           0.0000
     HEAD DEP BOUNDS =   356068576.0000       HEAD DEP BOUNDS =       3.2265E-03
            RECHARGE =           0.0000              RECHARGE =           0.0000
          SWIADDTOCH =           0.0000            SWIADDTOCH =           0.0000

           TOTAL OUT =   891629696.0000             TOTAL OUT =           0.3833

            IN - OUT =      -12608.0000              IN - OUT =      -2.9802E-08

 PERCENT DISCREPANCY =          -0.00     PERCENT DISCREPANCY =          -0.00






         TIME SUMMARY AT END OF TIME STEP   57 IN STRESS PERIOD    2
                    SECONDS     MINUTES      HOURS       DAYS        YEARS
                    -----------------------------------------------------------
   TIME STEP LENGTH 1.57680E+07 2.62800E+05  4380.0      182.50     0.49966    
 STRESS PERIOD TIME 8.98776E+08 1.49796E+07 2.49660E+05  10402.      28.480    
         TOTAL TIME 4.05238E+09 6.75397E+07 1.12566E+06  46903.      128.41    
1
 
 SOLVING FOR HEAD 

 CELL CONVERSIONS FOR ITER.=  2  LAYER=  1  STEP= 58  PERIOD=   2   (ROW,COL)
    DRY(  8, 26)   

 CELL CONVERSIONS FOR ITER.=  2  LAYER=  2  STEP= 58  PERIOD=   2   (ROW,COL)
    DRY( 57, 33)   
    55 CALLS TO PCG ROUTINE FOR TIME STEP  58 IN STRESS PERIOD    2
   115 TOTAL ITERATIONS

 MAXIMUM HEAD CHANGE FOR EACH ITERATION (1 INDICATES THE FIRST INNER ITERATION):

    HEAD CHANGE    HEAD CHANGE    HEAD CHANGE    HEAD CHANGE    HEAD CHANGE 
   LAYER,ROW,COL  LAYER,ROW,COL  LAYER,ROW,COL  LAYER,ROW,COL  LAYER,ROW,COL
 ---------------------------------------------------------------------------
  1 -0.2513      0  0.6170E-01  0  0.1779E-01  0 -0.3445E-02  0 -0.1122E-02
   (  1, 19, 10)  (  2, 22, 10)  (  1, 19, 10)  (  2, 18,  9)  (  1, 22,  8)
  0 -0.4037E-03  1 -0.3485E-01  0  0.5773E-02  0  0.1626E-02  0  0.4303E-03
   (  1, 35,  8)  (  2,  8, 26)  (  2, 13, 33)  (  2, 13, 33)  (  2, 13, 33)
  1 -0.1394E-01  0 -0.4814E-03  1  0.8910E-02  0  0.3539E-03  1 -0.8367E-02
   (  2, 13, 33)  (  2, 13, 33)  (  2, 51, 39)  (  2, 51, 39)  (  2, 51, 39)
  0 -0.2957E-03  1  0.7905E-02  0  0.2185E-03  1 -0.7529E-02  0 -0.1441E-03
   (  2, 51, 39)  (  2, 51, 39)  (  2, 51, 39)  (  2, 51, 39)  (  2, 51, 39)
  1  0.7181E-02  0  0.9693E-04  1 -0.6871E-02  0 -0.6545E-04  1  0.6573E-02
   (  2, 51, 39)  (  2, 51, 39)  (  2, 51, 39)  (  2, 51, 39)  (  2, 51, 39)
  0  0.4827E-04  1 -0.6299E-02  0 -0.3678E-04  1  0.6034E-02  0  0.3055E-04
   (  2, 51, 39)  (  2, 51, 39)  (  2, 51, 39)  (  2, 51, 39)  (  2, 51, 39)
  1 -0.5785E-02  0 -0.2577E-04  1  0.5543E-02  0  0.2320E-04  1 -0.5317E-02
   (  2, 51, 39)  (  2, 51, 39)  (  2, 51, 39)  (  2, 51, 39)  (  2, 51, 39)
  0 -0.2076E-04  1  0.5096E-02  0  0.1951E-04  1 -0.4889E-02  0 -0.1799E-04
   (  2, 51, 39)  (  2, 51, 39)  (  2, 51, 39)  (  2, 51, 39)  (  2, 51, 39)
  1  0.4688E-02  0  0.1724E-04  1 -0.4498E-02  0 -0.1611E-04  1  0.4312E-02
   (  2, 51, 39)  (  2, 51, 39)  (  2, 51, 39)  (  2, 51, 39)  (  2, 51, 39)
  0  0.1555E-04  1 -0.4135E-02  0 -0.1462E-04  1  0.3964E-02  0  0.1415E-04
   (  2, 51, 39)  (  2, 51, 39)  (  2, 51, 39)  (  2, 51, 39)  (  2, 51, 39)
  1 -0.3802E-02  0 -0.1335E-04  1  0.3645E-02  0  0.1293E-04  1 -0.3497E-02
   (  2, 51, 39)  (  2, 51, 39)  (  2, 51, 39)  (  2, 51, 39)  (  2, 51, 39)
  0 -0.1224E-04  1  0.3353E-02  0  0.1186E-04  1 -0.3216E-02  0 -0.1124E-04
   (  2, 51, 39)  (  2, 51, 39)  (  2, 51, 39)  (  2, 51, 39)  (  2, 51, 39)
  1  0.3084E-02  0  0.1088E-04  1 -0.2959E-02  0 -0.1033E-04  1  0.2837E-02
   (  2, 51, 39)  (  2, 51, 39)  (  2, 51, 39)  (  2, 51, 39)  (  2, 51, 39)
  0  0.9997E-05  1 -0.2722E-02  0 -0.9497E-05  1  0.2610E-02  0  0.9182E-05
   (  2, 51, 39)  (  2, 51, 39)  (  2, 51, 39)  (  2, 51, 39)  (  2, 51, 39)
  1 -0.2503E-02  0 -0.8725E-05  1  0.2400E-02  0  0.8434E-05  1 -0.2302E-02
   (  2, 51, 39)  (  2, 51, 39)  (  2, 51, 39)  (  2, 51, 39)  (  2, 51, 39)
  0 -0.8023E-05  1  0.2207E-02  0  0.7751E-05  1 -0.2116E-02  0 -0.7380E-05
   (  2, 51, 39)  (  2, 51, 39)  (  2, 51, 39)  (  2, 51, 39)  (  2, 51, 39)
  1  0.2030E-02  0  0.7135E-05  1 -0.1947E-02  0 -0.6802E-05  1  0.1866E-02
   (  2, 51, 39)  (  2, 51, 39)  (  2, 51, 39)  (  2, 51, 39)  (  2, 51, 39)
  0  0.6568E-05  1 -0.1790E-02  0 -0.6264E-05  1  0.1717E-02  0  0.6040E-05
   (  2, 51, 39)  (  2, 51, 39)  (  2, 51, 39)  (  2, 51, 39)  (  2, 51, 39)
  1 -0.1646E-02  0 -0.5755E-05  1  0.1578E-02  0  0.5549E-05  1 -0.1515E-02
   (  2, 51, 39)  (  2, 51, 39)  (  2, 51, 39)  (  2, 51, 39)  (  2, 51, 39)
  0 -0.5294E-05  1  0.1453E-02  0  0.5099E-05  1 -0.1393E-02  0 -0.4859E-05
   (  2, 51, 39)  (  2, 51, 39)  (  2, 51, 39)  (  2, 51, 39)  (  2, 51, 39)
  1  0.1336E-02  0  0.4680E-05  1 -0.1281E-02  0 -0.4465E-05  1  0.1228E-02
   (  2, 51, 39)  (  2, 51, 39)  (  2, 51, 39)  (  2, 51, 39)  (  2, 51, 39)
  0  0.4298E-05  1 -0.1178E-02  0 -0.4103E-05  1  0.1128E-02  0  0.3944E-05
   (  2, 51, 39)  (  2, 51, 39)  (  2, 51, 39)  (  2, 51, 39)  (  2, 51, 39)
  1 -0.1081E-02  0 -0.3767E-05  1  0.1035E-02  0  0.3620E-05  1 -0.9916E-03
   (  2, 51, 39)  (  2, 51, 39)  (  2, 51, 39)  (  2, 51, 39)  (  2, 51, 39)

 MAXIMUM RESIDUAL FOR EACH ITERATION (1 INDICATES THE FIRST INNER ITERATION):

    RESIDUAL       RESIDUAL       RESIDUAL       RESIDUAL       RESIDUAL    
   LAYER,ROW,COL  LAYER,ROW,COL  LAYER,ROW,COL  LAYER,ROW,COL  LAYER,ROW,COL
 ---------------------------------------------------------------------------
  1  0.3436E-03  0  0.1154E-03  0 -0.3367E-04  0  0.1140E-04  0 -0.4305E-05
   (  2, 23,  8)  (  2, 21,  9)  (  2, 21,  8)  (  2, 20,  8)  (  2, 19,  9)
  0  0.1038E-05  1  0.2035E-04  0  0.8694E-05  0  0.2054E-05  0 -0.5698E-06
   (  2, 19, 10)  (  2,  8, 26)  (  2,  9, 25)  (  2,  9, 25)  (  2, 10, 25)
  1  0.9609E-06  0  0.3830E-06  1 -0.7396E-06  0 -0.3152E-06  1  0.5238E-06
   (  2, 14, 32)  (  2, 13, 32)  (  2, 14, 32)  (  2, 13, 32)  (  2, 14, 32)
  0  0.2096E-06  1 -0.3378E-06  0 -0.1378E-06  1  0.2185E-06  0  0.8606E-07
   (  2, 13, 32)  (  2, 14, 32)  (  2, 13, 32)  (  2, 14, 32)  (  2, 13, 32)
  1 -0.1355E-06  0 -0.6617E-07  1  0.9854E-07  0  0.5103E-07  1 -0.7760E-07
   (  2, 14, 32)  (  2,  3, 30)  (  2,  3, 30)  (  2,  3, 30)  (  2,  3, 30)
  0 -0.3976E-07  1  0.6064E-07  0  0.3052E-07  1  0.4859E-07  0  0.2905E-07
   (  2,  3, 30)  (  2,  3, 30)  (  2,  3, 30)  (  2, 52, 37)  (  2, 52, 37)
  1 -0.4657E-07  0 -0.2768E-07  1  0.4468E-07  0  0.2644E-07  1 -0.4280E-07
   (  2, 52, 37)  (  2, 52, 37)  (  2, 52, 37)  (  2, 52, 37)  (  2, 52, 37)
  0 -0.2529E-07  1  0.4109E-07  0  0.2419E-07  1 -0.3935E-07  0 -0.2319E-07
   (  2, 52, 37)  (  2, 52, 37)  (  2, 52, 37)  (  2, 52, 37)  (  2, 52, 37)
  1  0.3776E-07  0  0.2219E-07  1 -0.3618E-07  0 -0.2133E-07  1  0.3474E-07
   (  2, 52, 37)  (  2, 52, 37)  (  2, 52, 37)  (  2, 52, 37)  (  2, 52, 37)
  0  0.2045E-07  1 -0.3328E-07  0 -0.1967E-07  1  0.3196E-07  0  0.1886E-07
   (  2, 52, 37)  (  2, 52, 37)  (  2, 52, 37)  (  2, 52, 37)  (  2, 52, 37)
  1 -0.3063E-07  0 -0.1815E-07  1  0.2939E-07  0  0.1741E-07  1 -0.2816E-07
   (  2, 52, 37)  (  2, 52, 37)  (  2, 52, 37)  (  2, 52, 37)  (  2, 52, 37)
  0 -0.1674E-07  1  0.2703E-07  0  0.1607E-07  1 -0.2591E-07  0 -0.1545E-07
   (  2, 52, 37)  (  2, 52, 37)  (  2, 52, 37)  (  2, 52, 37)  (  2, 52, 37)
  1  0.2487E-07  0  0.1482E-07  1 -0.2384E-07  0 -0.1425E-07  1  0.2287E-07
   (  2, 52, 37)  (  2, 52, 37)  (  2, 52, 37)  (  2, 52, 37)  (  2, 52, 37)
  0  0.1366E-07  1 -0.2191E-07  0 -0.1312E-07  1  0.2102E-07  0  0.1257E-07
   (  2, 52, 37)  (  2, 52, 37)  (  2, 52, 37)  (  2, 52, 37)  (  2, 52, 37)
  1 -0.2016E-07  0 -0.1208E-07  1  0.1936E-07  0  0.1159E-07  1 -0.1857E-07
   (  2, 52, 37)  (  2, 52, 37)  (  2, 52, 37)  (  2, 52, 37)  (  2, 52, 37)
  0 -0.1113E-07  1  0.1782E-07  0  0.1067E-07  1 -0.1707E-07  0 -0.1024E-07
   (  2, 52, 37)  (  2, 52, 37)  (  2, 52, 37)  (  2, 52, 37)  (  2, 52, 37)
  1  0.1639E-07  0  0.9812E-08  1 -0.1570E-07  0 -0.9422E-08  1  0.1507E-07
   (  2, 52, 37)  (  2, 52, 37)  (  2, 52, 37)  (  2, 52, 37)  (  2, 52, 37)
  0  0.9027E-08  1 -0.1444E-07  0 -0.8664E-08  1  0.1384E-07  0  0.8296E-08
   (  2, 52, 37)  (  2, 52, 37)  (  2, 52, 37)  (  2, 52, 37)  (  2, 52, 37)
  1 -0.1325E-07  0 -0.7957E-08  1  0.1269E-07  0  0.7608E-08  1 -0.1217E-07
   (  2, 52, 37)  (  2, 52, 37)  (  2, 52, 37)  (  2, 52, 37)  (  2, 52, 37)
  0 -0.7310E-08  1  0.1169E-07  0  0.7006E-08  1 -0.1121E-07  0 -0.6730E-08
   (  2, 52, 37)  (  2, 52, 37)  (  2, 52, 37)  (  2, 52, 37)  (  2, 52, 37)
  1  0.1076E-07  0  0.6451E-08  1 -0.1033E-07  0 -0.6199E-08  1  0.9916E-08
   (  2, 52, 37)  (  2, 52, 37)  (  2, 52, 37)  (  2, 52, 37)  (  2, 52, 37)
  0  0.5943E-08  1 -0.9510E-08  0 -0.5703E-08  1  0.9121E-08  0  0.5468E-08
   (  2, 52, 37)  (  2, 52, 37)  (  2, 52, 37)  (  2, 52, 37)  (  2, 52, 37)
  1 -0.8739E-08  0 -0.5239E-08  1  0.8374E-08  0  0.5021E-08  1 -0.8017E-08
   (  2, 52, 37)  (  2, 52, 37)  (  2, 52, 37)  (  2, 52, 37)  (  2, 52, 37)



 OUTPUT CONTROL FOR STRESS PERIOD    2   TIME STEP   58
    SAVE HEAD FOR ALL LAYERS
    SAVE DRAWDOWN FOR ALL LAYERS
    SAVE BUDGET
    PRINT BUDGET
 UBDSV1 SAVING "         STORAGE" ON UNIT   9 AT TIME STEP 58, STRESS PERIOD   2
 UBDSV2 SAVING "   CONSTANT HEAD" ON UNIT   9 AT TIME STEP 58, STRESS PERIOD   2
 UBDSV1 SAVING "FLOW RIGHT FACE " ON UNIT   9 AT TIME STEP 58, STRESS PERIOD   2
 UBDSV1 SAVING "FLOW FRONT FACE " ON UNIT   9 AT TIME STEP 58, STRESS PERIOD   2
 UBDSV1 SAVING "FLOW LOWER FACE " ON UNIT   9 AT TIME STEP 58, STRESS PERIOD   2
 UBDSV4 SAVING "           WELLS" ON UNIT   9 AT TIME STEP 58, STRESS PERIOD   2
 UBDSV4 SAVING "   RIVER LEAKAGE" ON UNIT   9 AT TIME STEP 58, STRESS PERIOD   2
 UBDSV3 SAVING "              ET" ON UNIT   9 AT TIME STEP 58, STRESS PERIOD   2
 UBDSV4 SAVING " HEAD DEP BOUNDS" ON UNIT   9 AT TIME STEP 58, STRESS PERIOD   2
 UBDSV3 SAVING "        RECHARGE" ON UNIT   9 AT TIME STEP 58, STRESS PERIOD   2
 SOLVING FOR ZETA FOR LAYER     1 ZONE     2
     2 CALLS TO PCG ROUTINE FOR TIME STEP  58 IN STRESS PERIOD    2
     4 TOTAL ITERATIONS

 MAXIMUM HEAD CHANGE FOR EACH ITERATION (1 INDICATES THE FIRST INNER ITERATION):

    HEAD CHANGE    HEAD CHANGE    HEAD CHANGE    HEAD CHANGE    HEAD CHANGE 
   LAYER,ROW,COL  LAYER,ROW,COL  LAYER,ROW,COL  LAYER,ROW,COL  LAYER,ROW,COL
 ---------------------------------------------------------------------------
  1   8.153      0 -0.4518E-01  0  0.3017E-03  1  0.2872E-05
   (  1, 14,  9)  (  1, 22,  7)  (  1, 24,  6)  (  1, 21,  4)

 MAXIMUM RESIDUAL FOR EACH ITERATION (1 INDICATES THE FIRST INNER ITERATION):

    RESIDUAL       RESIDUAL       RESIDUAL       RESIDUAL       RESIDUAL    
   LAYER,ROW,COL  LAYER,ROW,COL  LAYER,ROW,COL  LAYER,ROW,COL  LAYER,ROW,COL
 ---------------------------------------------------------------------------
  1  0.1505E-04  0 -0.9048E-07  0  0.1088E-08  1 -0.1657E-10
   (  1, 22,  7)  (  1, 24,  6)  (  1, 22,  3)  (  1, 24,  5)


 SOLVING FOR ZETA FOR LAYER     2 ZONE     2
     2 CALLS TO PCG ROUTINE FOR TIME STEP  58 IN STRESS PERIOD    2
     4 TOTAL ITERATIONS

 MAXIMUM HEAD CHANGE FOR EACH ITERATION (1 INDICATES THE FIRST INNER ITERATION):

    HEAD CHANGE    HEAD CHANGE    HEAD CHANGE    HEAD CHANGE    HEAD CHANGE 
   LAYER,ROW,COL  LAYER,ROW,COL  LAYER,ROW,COL  LAYER,ROW,COL  LAYER,ROW,COL
 ---------------------------------------------------------------------------
  1   7.367      0  0.3305E-01  0  0.4377E-03  1  0.4449E-05
   (  1, 22,  9)  (  1, 24,  8)  (  1, 25,  7)  (  1, 31,  3)

 MAXIMUM RESIDUAL FOR EACH ITERATION (1 INDICATES THE FIRST INNER ITERATION):

    RESIDUAL       RESIDUAL       RESIDUAL       RESIDUAL       RESIDUAL    
   LAYER,ROW,COL  LAYER,ROW,COL  LAYER,ROW,COL  LAYER,ROW,COL  LAYER,ROW,COL
 ---------------------------------------------------------------------------
  1  0.1158E-04  0 -0.1400E-06  0 -0.1840E-08  1  0.2018E-10
   (  1, 24,  7)  (  1,  6,  8)  (  1, 31,  3)  (  1, 29,  4)


 UBUDSV SAVING "      ZETASRF  1" ON UNIT170 AT TIME STEP 58, STRESS PERIOD    2


                      VOLUMETRIC SWI ZONE BUDGET FOR ENTIRE MODEL
                     AT END OF TIME STEP   58 IN STRESS PERIOD   2
                                      ZONE     1
  -----------------------------------------------------------------------------------

        CUMULATIVE VOLUMES      L**3       RATES FOR THIS TIME STEP      L**3/T
        ------------------                 ------------------------

              IN:                                      IN:
              ---                                      ---
             BOUNDARIES =   708019456.0000            BOUNDARIES =           0.1994
          CONSTANT HEAD =           0.0000         CONSTANT HEAD =           0.0000
            ZONE CHANGE =   178887408.0000           ZONE CHANGE =       6.3796E-02
       ZONE CHG TIP/TOE =     8545092.0000      ZONE CHG TIP/TOE =       2.0508E-03
            ZONE MIXING =           0.0000           ZONE MIXING =           0.0000

               TOTAL IN =   895451968.0000              TOTAL IN =           0.2653

             OUT:                                     OUT:
             ----                                     ----
             BOUNDARIES =   792684800.0000            BOUNDARIES =           0.2608
          CONSTANT HEAD =           0.0000         CONSTANT HEAD =           0.0000
            ZONE CHANGE =    28969866.0000           ZONE CHANGE =       9.6262E-03
       ZONE CHG TIP/TOE =     7058825.0000      ZONE CHG TIP/TOE =       2.0883E-03
            ZONE MIXING =      621744.8125           ZONE MIXING =           0.0000

              TOTAL OUT =   829335232.0000             TOTAL OUT =           0.2725

               IN - OUT =    66116736.0000              IN - OUT =      -7.2060E-03

    PERCENT DISCREPANCY =           7.67     PERCENT DISCREPANCY =          -2.68



                      VOLUMETRIC SWI ZONE BUDGET FOR ENTIRE MODEL
                     AT END OF TIME STEP   58 IN STRESS PERIOD   2
                                      ZONE     2
  -----------------------------------------------------------------------------------

        CUMULATIVE VOLUMES      L**3       RATES FOR THIS TIME STEP      L**3/T
        ------------------                 ------------------------

              IN:                                      IN:
              ---                                      ---
             BOUNDARIES =    73402520.0000            BOUNDARIES =           0.1169
          CONSTANT HEAD =           0.0000         CONSTANT HEAD =           0.0000
            ZONE CHANGE =    25087678.0000           ZONE CHANGE =       9.0834E-03
       ZONE CHG TIP/TOE =    14967879.0000      ZONE CHG TIP/TOE =       2.6850E-03
            ZONE MIXING =      621744.8125           ZONE MIXING =           0.0000

               TOTAL IN =   114079824.0000              TOTAL IN =           0.1287

             OUT:                                     OUT:
             ----                                     ----
             BOUNDARIES =    66455284.0000            BOUNDARIES =           0.1018
          CONSTANT HEAD =           0.0000         CONSTANT HEAD =           0.0000
            ZONE CHANGE =    46116516.0000           ZONE CHANGE =       2.6374E-02
       ZONE CHG TIP/TOE =     5354405.5000      ZONE CHG TIP/TOE =       1.0266E-03
            ZONE MIXING =           0.0000           ZONE MIXING =           0.0000

              TOTAL OUT =   117926208.0000             TOTAL OUT =           0.1292

               IN - OUT =    -3846384.0000              IN - OUT =      -4.6884E-04

    PERCENT DISCREPANCY =          -3.32     PERCENT DISCREPANCY =          -0.36


 HEAD WILL BE SAVED ON UNIT   37 AT END OF TIME STEP   58, STRESS PERIOD    2

 DRAWDOWN WILL BE SAVED ON UNIT   38 AT END OF TIME STEP   58, STRESS PERIOD    2
1
  VOLUMETRIC BUDGET FOR ENTIRE MODEL AT END OF TIME STEP   58, STRESS PERIOD   2
  ------------------------------------------------------------------------------

     CUMULATIVE VOLUMES      L**3       RATES FOR THIS TIME STEP      L**3/T
     ------------------                 ------------------------

           IN:                                      IN:
           ---                                      ---
             STORAGE =    72302784.0000               STORAGE =       4.6212E-02
       CONSTANT HEAD =           0.0000         CONSTANT HEAD =           0.0000
               WELLS =           0.0000                 WELLS =           0.0000
       RIVER LEAKAGE =   148221248.0000         RIVER LEAKAGE =       4.1000E-02
                  ET =           0.0000                    ET =           0.0000
     HEAD DEP BOUNDS =    82961664.0000       HEAD DEP BOUNDS =           0.1199
            RECHARGE =   594172480.0000              RECHARGE =           0.1760
          SWIADDTOCH =           0.0000            SWIADDTOCH =           0.0000

            TOTAL IN =   897658176.0000              TOTAL IN =           0.3831

          OUT:                                     OUT:
          ----                                     ----
             STORAGE =       53646.9141               STORAGE =       3.6810E-05
       CONSTANT HEAD =           0.0000         CONSTANT HEAD =           0.0000
               WELLS =   353455456.0000                 WELLS =           0.3800
       RIVER LEAKAGE =    21630804.0000         RIVER LEAKAGE =           0.0000
                  ET =   166413648.0000                    ET =           0.0000
     HEAD DEP BOUNDS =   356117248.0000       HEAD DEP BOUNDS =       3.0873E-03
            RECHARGE =           0.0000              RECHARGE =           0.0000
          SWIADDTOCH =           0.0000            SWIADDTOCH =           0.0000

           TOTAL OUT =   897670784.0000             TOTAL OUT =           0.3831

            IN - OUT =      -12608.0000              IN - OUT =           0.0000

 PERCENT DISCREPANCY =          -0.00     PERCENT DISCREPANCY =           0.00






         TIME SUMMARY AT END OF TIME STEP   58 IN STRESS PERIOD    2
                    SECONDS     MINUTES      HOURS       DAYS        YEARS
                    -----------------------------------------------------------
   TIME STEP LENGTH 1.57680E+07 2.62800E+05  4380.0      182.50     0.49966    
 STRESS PERIOD TIME 9.14544E+08 1.52424E+07 2.54040E+05  10585.      28.980    
         TOTAL TIME 4.06815E+09 6.78025E+07 1.13004E+06  47085.      128.91    
1
 
 SOLVING FOR HEAD 

 CELL CONVERSIONS FOR ITER.=  2  LAYER=  2  STEP= 59  PERIOD=   2   (ROW,COL)
    DRY( 51, 39)   DRY( 53, 39)   
    16 CALLS TO PCG ROUTINE FOR TIME STEP  59 IN STRESS PERIOD    2
    37 TOTAL ITERATIONS

 MAXIMUM HEAD CHANGE FOR EACH ITERATION (1 INDICATES THE FIRST INNER ITERATION):

    HEAD CHANGE    HEAD CHANGE    HEAD CHANGE    HEAD CHANGE    HEAD CHANGE 
   LAYER,ROW,COL  LAYER,ROW,COL  LAYER,ROW,COL  LAYER,ROW,COL  LAYER,ROW,COL
 ---------------------------------------------------------------------------
  1 -0.3239      0  0.9232E-01  0 -0.1690E-01  0 -0.3597E-02  0  0.1651E-02
   (  1, 14,  9)  (  2, 14,  9)  (  2, 14, 10)  (  1, 19, 10)  (  2,  5, 11)
  0 -0.4294E-03  1  0.1320E-01  0  0.4508E-02  0  0.1082E-02  0  0.2759E-03
   (  2,  6, 12)  (  2, 50, 39)  (  2, 50, 39)  (  2, 13, 33)  (  2, 13, 33)
  1 -0.1244E-01  0 -0.4663E-03  1  0.8424E-02  0  0.3542E-03  1 -0.6535E-02
   (  2, 13, 33)  (  2, 13, 33)  (  2, 13, 33)  (  2, 13, 33)  (  2,  3, 31)
  0 -0.3211E-03  1  0.5476E-02  0  0.2896E-03  1 -0.4605E-02  0 -0.2370E-03
   (  2,  3, 31)  (  2,  3, 31)  (  2,  3, 31)  (  2,  3, 31)  (  2,  3, 31)
  1  0.3865E-02  0  0.1941E-03  1 -0.3251E-02  0 -0.1551E-03  1  0.2730E-02
   (  2,  3, 31)  (  2,  3, 31)  (  2,  3, 31)  (  2,  3, 31)  (  2,  3, 31)
  0  0.1266E-03  1 -0.2294E-02  0 -0.1031E-03  1  0.1926E-02  0  0.8532E-04
   (  2,  3, 31)  (  2,  3, 31)  (  2,  3, 31)  (  2,  3, 31)  (  2,  3, 31)
  1 -0.1618E-02  0 -0.7057E-04  1  0.1359E-02  0  0.5887E-04  1 -0.1142E-02
   (  2,  3, 31)  (  2,  3, 31)  (  2,  3, 31)  (  2,  3, 31)  (  2,  3, 31)
  0 -0.4909E-04  1  0.9586E-03
   (  2,  3, 31)  (  2,  3, 31)

 MAXIMUM RESIDUAL FOR EACH ITERATION (1 INDICATES THE FIRST INNER ITERATION):

    RESIDUAL       RESIDUAL       RESIDUAL       RESIDUAL       RESIDUAL    
   LAYER,ROW,COL  LAYER,ROW,COL  LAYER,ROW,COL  LAYER,ROW,COL  LAYER,ROW,COL
 ---------------------------------------------------------------------------
  1 -0.7214E-03  0  0.1509E-03  0 -0.5001E-04  0 -0.1577E-04  0 -0.4661E-05
   (  2, 14,  9)  (  2, 14,  8)  (  2, 15,  8)  (  1, 14,  9)  (  1, 14,  9)
  0  0.1657E-05  1 -0.5334E-05  0  0.2009E-05  0  0.5302E-06  0  0.1206E-06
   (  2, 14,  9)  (  2, 12, 20)  (  2, 12, 21)  (  2, 12, 21)  (  2, 13, 20)
  1  0.8199E-06  0  0.3007E-06  1 -0.6570E-06  0 -0.3001E-06  1  0.5332E-06
   (  2, 14, 32)  (  2, 13, 32)  (  2, 14, 32)  (  2, 13, 32)  (  2, 14, 32)
  0  0.2161E-06  1 -0.3724E-06  0 -0.1545E-06  1  0.2623E-06  0  0.1026E-06
   (  2, 13, 32)  (  2, 14, 32)  (  2, 13, 32)  (  2, 14, 32)  (  2, 13, 32)
  1 -0.1743E-06  0 -0.7196E-07  1  0.1174E-06  0  0.5939E-07  1  0.9263E-07
   (  2, 14, 32)  (  2,  3, 30)  (  2, 14, 32)  (  2,  3, 30)  (  2,  5, 11)
  0 -0.5008E-07  1  0.7327E-07  0  0.4156E-07  1  0.6117E-07  0 -0.3495E-07
   (  2,  3, 30)  (  2,  5, 11)  (  2,  3, 30)  (  2,  4, 29)  (  2,  3, 30)
  1 -0.5134E-07  0  0.2917E-07  1  0.4309E-07  0 -0.2451E-07  1 -0.3616E-07
   (  2,  4, 29)  (  2,  3, 30)  (  2,  4, 29)  (  2,  3, 30)  (  2,  4, 29)
  0  0.2053E-07  1  0.3038E-07
   (  2,  3, 30)  (  2,  4, 29)



 OUTPUT CONTROL FOR STRESS PERIOD    2   TIME STEP   59
    SAVE HEAD FOR ALL LAYERS
    SAVE DRAWDOWN FOR ALL LAYERS
    SAVE BUDGET
    PRINT BUDGET
 UBDSV1 SAVING "         STORAGE" ON UNIT   9 AT TIME STEP 59, STRESS PERIOD   2
 UBDSV2 SAVING "   CONSTANT HEAD" ON UNIT   9 AT TIME STEP 59, STRESS PERIOD   2
 UBDSV1 SAVING "FLOW RIGHT FACE " ON UNIT   9 AT TIME STEP 59, STRESS PERIOD   2
 UBDSV1 SAVING "FLOW FRONT FACE " ON UNIT   9 AT TIME STEP 59, STRESS PERIOD   2
 UBDSV1 SAVING "FLOW LOWER FACE " ON UNIT   9 AT TIME STEP 59, STRESS PERIOD   2
 UBDSV4 SAVING "           WELLS" ON UNIT   9 AT TIME STEP 59, STRESS PERIOD   2
 UBDSV4 SAVING "   RIVER LEAKAGE" ON UNIT   9 AT TIME STEP 59, STRESS PERIOD   2
 UBDSV3 SAVING "              ET" ON UNIT   9 AT TIME STEP 59, STRESS PERIOD   2
 UBDSV4 SAVING " HEAD DEP BOUNDS" ON UNIT   9 AT TIME STEP 59, STRESS PERIOD   2
 UBDSV3 SAVING "        RECHARGE" ON UNIT   9 AT TIME STEP 59, STRESS PERIOD   2
 SOLVING FOR ZETA FOR LAYER     1 ZONE     2
     2 CALLS TO PCG ROUTINE FOR TIME STEP  59 IN STRESS PERIOD    2
     4 TOTAL ITERATIONS

 MAXIMUM HEAD CHANGE FOR EACH ITERATION (1 INDICATES THE FIRST INNER ITERATION):

    HEAD CHANGE    HEAD CHANGE    HEAD CHANGE    HEAD CHANGE    HEAD CHANGE 
   LAYER,ROW,COL  LAYER,ROW,COL  LAYER,ROW,COL  LAYER,ROW,COL  LAYER,ROW,COL
 ---------------------------------------------------------------------------
  1  -11.93      0 -0.3544E-01  0  0.4006E-03  1  0.3269E-05
   (  1, 13,  9)  (  1, 22,  7)  (  1, 24,  6)  (  1, 25,  5)

 MAXIMUM RESIDUAL FOR EACH ITERATION (1 INDICATES THE FIRST INNER ITERATION):

    RESIDUAL       RESIDUAL       RESIDUAL       RESIDUAL       RESIDUAL    
   LAYER,ROW,COL  LAYER,ROW,COL  LAYER,ROW,COL  LAYER,ROW,COL  LAYER,ROW,COL
 ---------------------------------------------------------------------------
  1  0.1227E-04  0 -0.1235E-06  0 -0.1005E-08  1 -0.2014E-10
   (  1, 22,  7)  (  1, 24,  6)  (  1, 25,  5)  (  1, 24,  6)


 SOLVING FOR ZETA FOR LAYER     2 ZONE     2
     2 CALLS TO PCG ROUTINE FOR TIME STEP  59 IN STRESS PERIOD    2
     4 TOTAL ITERATIONS

 MAXIMUM HEAD CHANGE FOR EACH ITERATION (1 INDICATES THE FIRST INNER ITERATION):

    HEAD CHANGE    HEAD CHANGE    HEAD CHANGE    HEAD CHANGE    HEAD CHANGE 
   LAYER,ROW,COL  LAYER,ROW,COL  LAYER,ROW,COL  LAYER,ROW,COL  LAYER,ROW,COL
 ---------------------------------------------------------------------------
  1   7.119      0  0.3068E-01  0  0.5381E-03  1  0.5168E-05
   (  1, 22,  9)  (  1,  8,  7)  (  1, 25,  7)  (  1, 31,  3)

 MAXIMUM RESIDUAL FOR EACH ITERATION (1 INDICATES THE FIRST INNER ITERATION):

    RESIDUAL       RESIDUAL       RESIDUAL       RESIDUAL       RESIDUAL    
   LAYER,ROW,COL  LAYER,ROW,COL  LAYER,ROW,COL  LAYER,ROW,COL  LAYER,ROW,COL
 ---------------------------------------------------------------------------
  1 -0.9375E-05  0 -0.1714E-06  0 -0.1999E-08  1 -0.4702E-10
   (  1, 29,  5)  (  1, 25,  7)  (  1, 31,  3)  (  1, 25,  7)


 UBUDSV SAVING "      ZETASRF  1" ON UNIT170 AT TIME STEP 59, STRESS PERIOD    2


                      VOLUMETRIC SWI ZONE BUDGET FOR ENTIRE MODEL
                     AT END OF TIME STEP   59 IN STRESS PERIOD   2
                                      ZONE     1
  -----------------------------------------------------------------------------------

        CUMULATIVE VOLUMES      L**3       RATES FOR THIS TIME STEP      L**3/T
        ------------------                 ------------------------

              IN:                                      IN:
              ---                                      ---
             BOUNDARIES =   711165184.0000            BOUNDARIES =           0.1995
          CONSTANT HEAD =           0.0000         CONSTANT HEAD =           0.0000
            ZONE CHANGE =   179893536.0000           ZONE CHANGE =       6.3809E-02
       ZONE CHG TIP/TOE =     8695702.0000      ZONE CHG TIP/TOE =       9.5516E-03
            ZONE MIXING =           0.0000           ZONE MIXING =           0.0000

               TOTAL IN =   899754432.0000              TOTAL IN =           0.2729

             OUT:                                     OUT:
             ----                                     ----
             BOUNDARIES =   796794240.0000            BOUNDARIES =           0.2606
          CONSTANT HEAD =           0.0000         CONSTANT HEAD =           0.0000
            ZONE CHANGE =    29090140.0000           ZONE CHANGE =       7.6278E-03
       ZONE CHG TIP/TOE =     7157200.0000      ZONE CHG TIP/TOE =       6.2389E-03
            ZONE MIXING =      621744.8125           ZONE MIXING =           0.0000

              TOTAL OUT =   833663296.0000             TOTAL OUT =           0.2745

               IN - OUT =    66091136.0000              IN - OUT =      -1.6247E-03

    PERCENT DISCREPANCY =           7.63     PERCENT DISCREPANCY =          -0.59



                      VOLUMETRIC SWI ZONE BUDGET FOR ENTIRE MODEL
                     AT END OF TIME STEP   59 IN STRESS PERIOD   2
                                      ZONE     2
  -----------------------------------------------------------------------------------

        CUMULATIVE VOLUMES      L**3       RATES FOR THIS TIME STEP      L**3/T
        ------------------                 ------------------------

              IN:                                      IN:
              ---                                      ---
             BOUNDARIES =    75251896.0000            BOUNDARIES =           0.1173
          CONSTANT HEAD =           0.0000         CONSTANT HEAD =           0.0000
            ZONE CHANGE =    25153376.0000           ZONE CHANGE =       4.1665E-03
       ZONE CHG TIP/TOE =    15112961.0000      ZONE CHG TIP/TOE =       9.2010E-03
            ZONE MIXING =      621744.8125           ZONE MIXING =           0.0000

               TOTAL IN =   116139976.0000              TOTAL IN =           0.1307

             OUT:                                     OUT:
             ----                                     ----
             BOUNDARIES =    68059920.0000            BOUNDARIES =           0.1018
          CONSTANT HEAD =           0.0000         CONSTANT HEAD =           0.0000
            ZONE CHANGE =    46572164.0000           ZONE CHANGE =       2.8897E-02
       ZONE CHG TIP/TOE =     5448150.0000      ZONE CHG TIP/TOE =       5.9452E-03
            ZONE MIXING =           0.0000           ZONE MIXING =           0.0000

              TOTAL OUT =   120080232.0000             TOTAL OUT =           0.1366

               IN - OUT =    -3940256.0000              IN - OUT =      -5.9538E-03

    PERCENT DISCREPANCY =          -3.34     PERCENT DISCREPANCY =          -4.46


 HEAD WILL BE SAVED ON UNIT   37 AT END OF TIME STEP   59, STRESS PERIOD    2

 DRAWDOWN WILL BE SAVED ON UNIT   38 AT END OF TIME STEP   59, STRESS PERIOD    2
1
  VOLUMETRIC BUDGET FOR ENTIRE MODEL AT END OF TIME STEP   59, STRESS PERIOD   2
  ------------------------------------------------------------------------------

     CUMULATIVE VOLUMES      L**3       RATES FOR THIS TIME STEP      L**3/T
     ------------------                 ------------------------

           IN:                                      IN:
           ---                                      ---
             STORAGE =    73023216.0000               STORAGE =       4.5690E-02
       CONSTANT HEAD =           0.0000         CONSTANT HEAD =           0.0000
               WELLS =           0.0000                 WELLS =           0.0000
       RIVER LEAKAGE =   148867744.0000         RIVER LEAKAGE =       4.1000E-02
                  ET =           0.0000                    ET =           0.0000
     HEAD DEP BOUNDS =    84859304.0000       HEAD DEP BOUNDS =           0.1203
            RECHARGE =   596947456.0000              RECHARGE =           0.1760
          SWIADDTOCH =           0.0000            SWIADDTOCH =           0.0000

            TOTAL IN =   903697728.0000              TOTAL IN =           0.3830

          OUT:                                     OUT:
          ----                                     ----
             STORAGE =       55104.8516               STORAGE =       9.2462E-05
       CONSTANT HEAD =           0.0000         CONSTANT HEAD =           0.0000
               WELLS =   359447296.0000                 WELLS =           0.3800
       RIVER LEAKAGE =    21630804.0000         RIVER LEAKAGE =           0.0000
                  ET =   166413648.0000                    ET =           0.0000
     HEAD DEP BOUNDS =   356163520.0000       HEAD DEP BOUNDS =       2.9338E-03
            RECHARGE =           0.0000              RECHARGE =           0.0000
          SWIADDTOCH =           0.0000            SWIADDTOCH =           0.0000

           TOTAL OUT =   903710400.0000             TOTAL OUT =           0.3830

            IN - OUT =      -12672.0000              IN - OUT =       2.9802E-08

 PERCENT DISCREPANCY =          -0.00     PERCENT DISCREPANCY =           0.00






         TIME SUMMARY AT END OF TIME STEP   59 IN STRESS PERIOD    2
                    SECONDS     MINUTES      HOURS       DAYS        YEARS
                    -----------------------------------------------------------
   TIME STEP LENGTH 1.57680E+07 2.62800E+05  4380.0      182.50     0.49966    
 STRESS PERIOD TIME 9.30312E+08 1.55052E+07 2.58420E+05  10768.      29.480    
         TOTAL TIME 4.08392E+09 6.80653E+07 1.13442E+06  47268.      129.41    
1
 
 SOLVING FOR HEAD 

 CELL CONVERSIONS FOR ITER.=  2  LAYER=  1  STEP= 60  PERIOD=   2   (ROW,COL)
    DRY( 41, 26)   
    37 CALLS TO PCG ROUTINE FOR TIME STEP  60 IN STRESS PERIOD    2
    79 TOTAL ITERATIONS

 MAXIMUM HEAD CHANGE FOR EACH ITERATION (1 INDICATES THE FIRST INNER ITERATION):

    HEAD CHANGE    HEAD CHANGE    HEAD CHANGE    HEAD CHANGE    HEAD CHANGE 
   LAYER,ROW,COL  LAYER,ROW,COL  LAYER,ROW,COL  LAYER,ROW,COL  LAYER,ROW,COL
 ---------------------------------------------------------------------------
  1  0.2626      0 -0.8423E-01  0  0.1720E-01  0 -0.5266E-02  0  0.1765E-02
   (  1, 14,  9)  (  2, 14,  9)  (  2, 13,  9)  (  2, 13, 10)  (  2,  6, 10)
  0  0.5343E-03  1 -0.3683E-01  0  0.5531E-02  0  0.1359E-02  0  0.3551E-03
   (  2,  5, 13)  (  2, 41, 26)  (  2, 50, 39)  (  2, 50, 39)  (  2, 50, 39)
  1 -0.9899E-02  0 -0.4801E-03  1  0.7533E-02  0  0.3355E-03  1 -0.6215E-02
   (  2, 13, 33)  (  2, 13, 33)  (  2, 13, 33)  (  2, 13, 33)  (  2,  3, 31)
  0 -0.2823E-03  1  0.5885E-02  0  0.2643E-03  1 -0.5579E-02  0 -0.2393E-03
   (  2,  3, 31)  (  2,  3, 31)  (  2,  3, 31)  (  2,  3, 31)  (  2,  3, 31)
  1  0.5282E-02  0  0.2191E-03  1 -0.5003E-02  0 -0.1992E-03  1  0.4732E-02
   (  2,  3, 31)  (  2,  3, 31)  (  2,  3, 31)  (  2,  3, 31)  (  2,  3, 31)
  0  0.1848E-03  1 -0.4477E-02  0 -0.1709E-03  1  0.4231E-02  0  0.1605E-03
   (  2,  3, 31)  (  2,  3, 31)  (  2,  3, 31)  (  2,  3, 31)  (  2,  3, 31)
  1 -0.3999E-02  0 -0.1500E-03  1  0.3777E-02  0  0.1418E-03  1 -0.3569E-02
   (  2,  3, 31)  (  2,  3, 31)  (  2,  3, 31)  (  2,  3, 31)  (  2,  3, 31)
  0 -0.1331E-03  1  0.3369E-02  0  0.1261E-03  1 -0.3181E-02  0 -0.1186E-03
   (  2,  3, 31)  (  2,  3, 31)  (  2,  3, 31)  (  2,  3, 31)  (  2,  3, 31)
  1  0.3001E-02  0  0.1124E-03  1 -0.2833E-02  0 -0.1058E-03  1  0.2672E-02
   (  2,  3, 31)  (  2,  3, 31)  (  2,  3, 31)  (  2,  3, 31)  (  2,  3, 31)
  0  0.1002E-03  1 -0.2520E-02  0 -0.9431E-04  1  0.2376E-02  0  0.8930E-04
   (  2,  3, 31)  (  2,  3, 31)  (  2,  3, 31)  (  2,  3, 31)  (  2,  3, 31)
  1 -0.2240E-02  0 -0.8405E-04  1  0.2111E-02  0  0.7951E-04  1 -0.1990E-02
   (  2,  3, 31)  (  2,  3, 31)  (  2,  3, 31)  (  2,  3, 31)  (  2,  3, 31)
  0 -0.7482E-04  1  0.1875E-02  0  0.7074E-04  1 -0.1767E-02  0 -0.6653E-04
   (  2,  3, 31)  (  2,  3, 31)  (  2,  3, 31)  (  2,  3, 31)  (  2,  3, 31)
  1  0.1664E-02  0  0.6285E-04  1 -0.1568E-02  0 -0.5911E-04  1  0.1477E-02
   (  2,  3, 31)  (  2,  3, 31)  (  2,  3, 31)  (  2,  3, 31)  (  2,  3, 31)
  0  0.5582E-04  1 -0.1392E-02  0 -0.5250E-04  1  0.1311E-02  0  0.4954E-04
   (  2,  3, 31)  (  2,  3, 31)  (  2,  3, 31)  (  2,  3, 31)  (  2,  3, 31)
  1 -0.1235E-02  0 -0.4661E-04  1  0.1163E-02  0  0.4398E-04  1 -0.1096E-02
   (  2,  3, 31)  (  2,  3, 31)  (  2,  3, 31)  (  2,  3, 31)  (  2,  3, 31)
  0 -0.4138E-04  1  0.1033E-02  0  0.3905E-04  1 -0.9729E-03
   (  2,  3, 31)  (  2,  3, 31)  (  2,  3, 31)  (  2,  3, 31)

 MAXIMUM RESIDUAL FOR EACH ITERATION (1 INDICATES THE FIRST INNER ITERATION):

    RESIDUAL       RESIDUAL       RESIDUAL       RESIDUAL       RESIDUAL    
   LAYER,ROW,COL  LAYER,ROW,COL  LAYER,ROW,COL  LAYER,ROW,COL  LAYER,ROW,COL
 ---------------------------------------------------------------------------
  1  0.6189E-03  0  0.1538E-03  0  0.5854E-04  0  0.1339E-04  0 -0.4618E-05
   (  2, 14,  9)  (  1, 14,  9)  (  2, 13, 10)  (  1, 14,  9)  (  2, 14,  9)
  0 -0.1323E-05  1  0.2515E-04  0  0.8474E-05  0  0.1963E-05  0  0.5314E-06
   (  2, 14,  9)  (  2, 41, 26)  (  2, 40, 27)  (  2, 42, 25)  (  2, 39, 28)
  1  0.6350E-06  0  0.2600E-06  1 -0.6013E-06  0 -0.2569E-06  1  0.5064E-06
   (  2, 14, 32)  (  2, 13, 32)  (  2, 14, 32)  (  2, 13, 32)  (  2, 14, 32)
  0  0.1955E-06  1 -0.3782E-06  0 -0.1551E-06  1  0.2936E-06  0  0.1148E-06
   (  2, 13, 32)  (  2, 14, 32)  (  2, 13, 32)  (  2, 14, 32)  (  2, 13, 32)
  1 -0.2173E-06  0 -0.8781E-07  1  0.1644E-06  0  0.8128E-07  1  0.1380E-06
   (  2, 14, 32)  (  2,  3, 30)  (  2, 14, 32)  (  2,  3, 30)  (  2,  4, 29)
  0 -0.7717E-07  1 -0.1305E-06  0  0.7187E-07  1  0.1231E-06  0 -0.6818E-07
   (  2,  3, 30)  (  2,  4, 29)  (  2,  3, 30)  (  2,  4, 29)  (  2,  3, 30)
  1 -0.1163E-06  0  0.6386E-07  1  0.1098E-06  0 -0.6064E-07  1 -0.1037E-06
   (  2,  4, 29)  (  2,  3, 30)  (  2,  4, 29)  (  2,  3, 30)  (  2,  4, 29)
  0  0.5699E-07  1  0.9790E-07  0 -0.5416E-07  1 -0.9249E-07  0  0.5100E-07
   (  2,  3, 30)  (  2,  4, 29)  (  2,  3, 30)  (  2,  4, 29)  (  2,  3, 30)
  1  0.8730E-07  0 -0.4847E-07  1 -0.8245E-07  0  0.4569E-07  1  0.7780E-07
   (  2,  4, 29)  (  2,  3, 30)  (  2,  4, 29)  (  2,  3, 30)  (  2,  4, 29)
  0 -0.4340E-07  1 -0.7346E-07  0  0.4090E-07  1  0.6928E-07  0 -0.3883E-07
   (  2,  3, 30)  (  2,  4, 29)  (  2,  3, 30)  (  2,  4, 29)  (  2,  3, 30)
  1 -0.6539E-07  0  0.3656E-07  1  0.6164E-07  0 -0.3465E-07  1 -0.5814E-07
   (  2,  4, 29)  (  2,  3, 30)  (  2,  4, 29)  (  2,  3, 30)  (  2,  4, 29)
  0  0.3260E-07  1  0.5479E-07  0 -0.3087E-07  1 -0.5167E-07  0  0.2902E-07
   (  2,  3, 30)  (  2,  4, 29)  (  2,  3, 30)  (  2,  4, 29)  (  2,  3, 30)
  1  0.4866E-07  0 -0.2746E-07  1 -0.4588E-07  0  0.2580E-07  1  0.4320E-07
   (  2,  4, 29)  (  2,  3, 30)  (  2,  4, 29)  (  2,  3, 30)  (  2,  4, 29)
  0 -0.2439E-07  1 -0.4072E-07  0  0.2292E-07  1  0.3834E-07  0 -0.2165E-07
   (  2,  3, 30)  (  2,  4, 29)  (  2,  3, 30)  (  2,  4, 29)  (  2,  3, 30)
  1 -0.3615E-07  0  0.2035E-07  1  0.3404E-07  0 -0.1923E-07  1 -0.3209E-07
   (  2,  4, 29)  (  2,  3, 30)  (  2,  4, 29)  (  2,  3, 30)  (  2,  4, 29)
  0  0.1807E-07  1  0.3022E-07  0 -0.1707E-07  1 -0.2848E-07
   (  2,  3, 30)  (  2,  4, 29)  (  2,  3, 30)  (  2,  4, 29)



 OUTPUT CONTROL FOR STRESS PERIOD    2   TIME STEP   60
    SAVE HEAD FOR ALL LAYERS
    SAVE DRAWDOWN FOR ALL LAYERS
    SAVE BUDGET
    PRINT BUDGET
 UBDSV1 SAVING "         STORAGE" ON UNIT   9 AT TIME STEP 60, STRESS PERIOD   2
 UBDSV2 SAVING "   CONSTANT HEAD" ON UNIT   9 AT TIME STEP 60, STRESS PERIOD   2
 UBDSV1 SAVING "FLOW RIGHT FACE " ON UNIT   9 AT TIME STEP 60, STRESS PERIOD   2
 UBDSV1 SAVING "FLOW FRONT FACE " ON UNIT   9 AT TIME STEP 60, STRESS PERIOD   2
 UBDSV1 SAVING "FLOW LOWER FACE " ON UNIT   9 AT TIME STEP 60, STRESS PERIOD   2
 UBDSV4 SAVING "           WELLS" ON UNIT   9 AT TIME STEP 60, STRESS PERIOD   2
 UBDSV4 SAVING "   RIVER LEAKAGE" ON UNIT   9 AT TIME STEP 60, STRESS PERIOD   2
 UBDSV3 SAVING "              ET" ON UNIT   9 AT TIME STEP 60, STRESS PERIOD   2
 UBDSV4 SAVING " HEAD DEP BOUNDS" ON UNIT   9 AT TIME STEP 60, STRESS PERIOD   2
 UBDSV3 SAVING "        RECHARGE" ON UNIT   9 AT TIME STEP 60, STRESS PERIOD   2
 SOLVING FOR ZETA FOR LAYER     1 ZONE     2
     2 CALLS TO PCG ROUTINE FOR TIME STEP  60 IN STRESS PERIOD    2
     4 TOTAL ITERATIONS

 MAXIMUM HEAD CHANGE FOR EACH ITERATION (1 INDICATES THE FIRST INNER ITERATION):

    HEAD CHANGE    HEAD CHANGE    HEAD CHANGE    HEAD CHANGE    HEAD CHANGE 
   LAYER,ROW,COL  LAYER,ROW,COL  LAYER,ROW,COL  LAYER,ROW,COL  LAYER,ROW,COL
 ---------------------------------------------------------------------------
  1   29.38      0  0.3816E-01  0  0.5808E-03  1  0.4763E-05
   (  1, 20,  9)  (  1, 23,  7)  (  1, 24,  6)  (  1, 25,  5)

 MAXIMUM RESIDUAL FOR EACH ITERATION (1 INDICATES THE FIRST INNER ITERATION):

    RESIDUAL       RESIDUAL       RESIDUAL       RESIDUAL       RESIDUAL    
   LAYER,ROW,COL  LAYER,ROW,COL  LAYER,ROW,COL  LAYER,ROW,COL  LAYER,ROW,COL
 ---------------------------------------------------------------------------
  1 -0.1165E-04  0 -0.1835E-06  0 -0.1499E-08  1 -0.2156E-10
   (  1, 23,  7)  (  1, 24,  6)  (  1, 25,  5)  (  1, 24,  6)


 SOLVING FOR ZETA FOR LAYER     2 ZONE     2
     2 CALLS TO PCG ROUTINE FOR TIME STEP  60 IN STRESS PERIOD    2
     4 TOTAL ITERATIONS

 MAXIMUM HEAD CHANGE FOR EACH ITERATION (1 INDICATES THE FIRST INNER ITERATION):

    HEAD CHANGE    HEAD CHANGE    HEAD CHANGE    HEAD CHANGE    HEAD CHANGE 
   LAYER,ROW,COL  LAYER,ROW,COL  LAYER,ROW,COL  LAYER,ROW,COL  LAYER,ROW,COL
 ---------------------------------------------------------------------------
  1   6.733      0  0.2322E-01  0  0.4358E-03  1  0.4614E-05
   (  1, 22,  9)  (  1, 23,  8)  (  1, 24,  7)  (  1, 31,  3)

 MAXIMUM RESIDUAL FOR EACH ITERATION (1 INDICATES THE FIRST INNER ITERATION):

    RESIDUAL       RESIDUAL       RESIDUAL       RESIDUAL       RESIDUAL    
   LAYER,ROW,COL  LAYER,ROW,COL  LAYER,ROW,COL  LAYER,ROW,COL  LAYER,ROW,COL
 ---------------------------------------------------------------------------
  1 -0.8672E-05  0 -0.1486E-06  0 -0.1778E-08  1 -0.2893E-10
   (  1, 29,  5)  (  1, 24,  7)  (  1, 31,  3)  (  1, 30,  4)


 UBUDSV SAVING "      ZETASRF  1" ON UNIT170 AT TIME STEP 60, STRESS PERIOD    2


                      VOLUMETRIC SWI ZONE BUDGET FOR ENTIRE MODEL
                     AT END OF TIME STEP   60 IN STRESS PERIOD   2
                                      ZONE     1
  -----------------------------------------------------------------------------------

        CUMULATIVE VOLUMES      L**3       RATES FOR THIS TIME STEP      L**3/T
        ------------------                 ------------------------

              IN:                                      IN:
              ---                                      ---
             BOUNDARIES =   714309184.0000            BOUNDARIES =           0.1994
          CONSTANT HEAD =           0.0000         CONSTANT HEAD =           0.0000
            ZONE CHANGE =   180962112.0000           ZONE CHANGE =       6.7769E-02
       ZONE CHG TIP/TOE =     8741122.0000      ZONE CHG TIP/TOE =       2.8805E-03
            ZONE MIXING =           0.0000           ZONE MIXING =           0.0000

               TOTAL IN =   904012416.0000              TOTAL IN =           0.2700

             OUT:                                     OUT:
             ----                                     ----
             BOUNDARIES =   801283520.0000            BOUNDARIES =           0.2847
          CONSTANT HEAD =           0.0000         CONSTANT HEAD =           0.0000
            ZONE CHANGE =    29143016.0000           ZONE CHANGE =       3.3534E-03
       ZONE CHG TIP/TOE =     7193362.0000      ZONE CHG TIP/TOE =       2.2934E-03
            ZONE MIXING =      621744.8125           ZONE MIXING =           0.0000

              TOTAL OUT =   838241664.0000             TOTAL OUT =           0.2904

               IN - OUT =    65770752.0000              IN - OUT =      -2.0315E-02

    PERCENT DISCREPANCY =           7.55     PERCENT DISCREPANCY =          -7.25



                      VOLUMETRIC SWI ZONE BUDGET FOR ENTIRE MODEL
                     AT END OF TIME STEP   60 IN STRESS PERIOD   2
                                      ZONE     2
  -----------------------------------------------------------------------------------

        CUMULATIVE VOLUMES      L**3       RATES FOR THIS TIME STEP      L**3/T
        ------------------                 ------------------------

              IN:                                      IN:
              ---                                      ---
             BOUNDARIES =    77110344.0000            BOUNDARIES =           0.1179
          CONSTANT HEAD =           0.0000         CONSTANT HEAD =           0.0000
            ZONE CHANGE =    25203740.0000           ZONE CHANGE =       3.1941E-03
       ZONE CHG TIP/TOE =    15376176.0000      ZONE CHG TIP/TOE =       1.6693E-02
            ZONE MIXING =      621744.8125           ZONE MIXING =           0.0000

               TOTAL IN =   118312000.0000              TOTAL IN =           0.1377

             OUT:                                     OUT:
             ----                                     ----
             BOUNDARIES =    69282360.0000            BOUNDARIES =       7.7527E-02
          CONSTANT HEAD =           0.0000         CONSTANT HEAD =           0.0000
            ZONE CHANGE =    47282336.0000           ZONE CHANGE =       4.5039E-02
       ZONE CHG TIP/TOE =     5485122.5000      ZONE CHG TIP/TOE =       2.3448E-03
            ZONE MIXING =           0.0000           ZONE MIXING =           0.0000

              TOTAL OUT =   122049824.0000             TOTAL OUT =           0.1249

               IN - OUT =    -3737824.0000              IN - OUT =       1.2839E-02

    PERCENT DISCREPANCY =          -3.11     PERCENT DISCREPANCY =           9.78


 HEAD WILL BE SAVED ON UNIT   37 AT END OF TIME STEP   60, STRESS PERIOD    2

 DRAWDOWN WILL BE SAVED ON UNIT   38 AT END OF TIME STEP   60, STRESS PERIOD    2
1
  VOLUMETRIC BUDGET FOR ENTIRE MODEL AT END OF TIME STEP   60, STRESS PERIOD   2
  ------------------------------------------------------------------------------

     CUMULATIVE VOLUMES      L**3       RATES FOR THIS TIME STEP      L**3/T
     ------------------                 ------------------------

           IN:                                      IN:
           ---                                      ---
             STORAGE =    73735184.0000               STORAGE =       4.5153E-02
       CONSTANT HEAD =           0.0000         CONSTANT HEAD =           0.0000
               WELLS =           0.0000                 WELLS =           0.0000
       RIVER LEAKAGE =   149514240.0000         RIVER LEAKAGE =       4.1000E-02
                  ET =           0.0000                    ET =           0.0000
     HEAD DEP BOUNDS =    86767240.0000       HEAD DEP BOUNDS =           0.1210
            RECHARGE =   599719488.0000              RECHARGE =           0.1758
          SWIADDTOCH =           0.0000            SWIADDTOCH =           0.0000

            TOTAL IN =   909736192.0000              TOTAL IN =           0.3830

          OUT:                                     OUT:
          ----                                     ----
             STORAGE =       57790.6953               STORAGE =       1.7034E-04
       CONSTANT HEAD =           0.0000         CONSTANT HEAD =           0.0000
               WELLS =   365439136.0000                 WELLS =           0.3800
       RIVER LEAKAGE =    21630804.0000         RIVER LEAKAGE =           0.0000
                  ET =   166413648.0000                    ET =           0.0000
     HEAD DEP BOUNDS =   356207392.0000       HEAD DEP BOUNDS =       2.7818E-03
            RECHARGE =           0.0000              RECHARGE =           0.0000
          SWIADDTOCH =           0.0000            SWIADDTOCH =           0.0000

           TOTAL OUT =   909748736.0000             TOTAL OUT =           0.3830

            IN - OUT =      -12544.0000              IN - OUT =       5.9605E-08

 PERCENT DISCREPANCY =          -0.00     PERCENT DISCREPANCY =           0.00






         TIME SUMMARY AT END OF TIME STEP   60 IN STRESS PERIOD    2
                    SECONDS     MINUTES      HOURS       DAYS        YEARS
                    -----------------------------------------------------------
   TIME STEP LENGTH 1.57680E+07 2.62800E+05  4380.0      182.50     0.49966    
 STRESS PERIOD TIME 9.46080E+08 1.57680E+07 2.62800E+05  10950.      29.979    
         TOTAL TIME 4.09968E+09 6.83281E+07 1.13880E+06  47450.      129.91    
1
 
 SOLVING FOR HEAD 

 CELL CONVERSIONS FOR ITER.=  2  LAYER=  1  STEP= 61  PERIOD=   2   (ROW,COL)
    DRY( 42, 27)   

 CELL CONVERSIONS FOR ITER.=  2  LAYER=  2  STEP= 61  PERIOD=   2   (ROW,COL)
    DRY(  3, 31)   DRY( 56, 34)   
    16 CALLS TO PCG ROUTINE FOR TIME STEP  61 IN STRESS PERIOD    2
    37 TOTAL ITERATIONS

 MAXIMUM HEAD CHANGE FOR EACH ITERATION (1 INDICATES THE FIRST INNER ITERATION):

    HEAD CHANGE    HEAD CHANGE    HEAD CHANGE    HEAD CHANGE    HEAD CHANGE 
   LAYER,ROW,COL  LAYER,ROW,COL  LAYER,ROW,COL  LAYER,ROW,COL  LAYER,ROW,COL
 ---------------------------------------------------------------------------
  1 -0.2404      0  0.8312E-01  0 -0.1905E-01  0 -0.4980E-02  0  0.1579E-02
   (  2, 22,  9)  (  2, 15, 10)  (  2, 13,  9)  (  2, 19,  9)  (  2,  5, 11)
  0 -0.4250E-03  1 -0.3828E-01  0  0.5576E-02  0  0.1504E-02  0  0.4301E-03
   (  1, 13, 10)  (  2, 42, 27)  (  2, 50, 39)  (  2, 50, 39)  (  2, 50, 39)
  1 -0.7259E-02  0 -0.4889E-03  1  0.6117E-02  0  0.3279E-03  1 -0.5122E-02
   (  2, 13, 33)  (  2, 13, 33)  (  2, 13, 33)  (  2, 13, 33)  (  2, 13, 33)
  0 -0.2568E-03  1  0.4276E-02  0  0.2151E-03  1 -0.3580E-02  0 -0.1733E-03
   (  2, 13, 33)  (  2, 13, 33)  (  2, 13, 33)  (  2, 13, 33)  (  2, 13, 33)
  1  0.2998E-02  0  0.1422E-03  1 -0.2516E-02  0 -0.1147E-03  1  0.2112E-02
   (  2, 13, 33)  (  2, 13, 33)  (  2, 13, 33)  (  2, 13, 33)  (  2, 13, 33)
  0  0.9397E-04  1 -0.1801E-02  0 -0.7843E-04  1  0.1555E-02  0  0.6596E-04
   (  2, 13, 33)  (  2, 11, 33)  (  2, 11, 33)  (  2, 11, 33)  (  2, 11, 33)
  1 -0.1344E-02  0 -0.5550E-04  1  0.1162E-02  0  0.4680E-04  1 -0.1006E-02
   (  2, 11, 33)  (  2, 11, 33)  (  2, 11, 33)  (  2, 11, 33)  (  2, 11, 33)
  0 -0.3948E-04  1  0.8718E-03
   (  2, 11, 33)  (  2, 11, 33)

 MAXIMUM RESIDUAL FOR EACH ITERATION (1 INDICATES THE FIRST INNER ITERATION):

    RESIDUAL       RESIDUAL       RESIDUAL       RESIDUAL       RESIDUAL    
   LAYER,ROW,COL  LAYER,ROW,COL  LAYER,ROW,COL  LAYER,ROW,COL  LAYER,ROW,COL
 ---------------------------------------------------------------------------
  1 -0.4780E-03  0  0.1423E-03  0  0.5303E-04  0 -0.1166E-04  0 -0.3596E-05
   (  2, 15, 10)  (  2, 19,  9)  (  2, 19,  9)  (  1, 14,  9)  (  2, 13,  9)
  0  0.1379E-05  1  0.2468E-04  0  0.9838E-05  0  0.2622E-05  0  0.5482E-06
   (  2, 19, 10)  (  2, 42, 27)  (  2, 41, 28)  (  2, 43, 26)  (  2, 40, 29)
  1 -0.5359E-06  0  0.2050E-06  1 -0.4969E-06  0 -0.2198E-06  1  0.4567E-06
   (  2, 18, 11)  (  2, 13, 32)  (  2, 14, 32)  (  2, 13, 32)  (  2, 14, 32)
  0  0.1805E-06  1 -0.3702E-06  0 -0.1586E-06  1  0.3170E-06  0  0.1299E-06
   (  2, 13, 32)  (  2, 14, 32)  (  2, 13, 32)  (  2, 14, 32)  (  2, 13, 32)
  1 -0.2588E-06  0 -0.1112E-06  1  0.2187E-06  0  0.9216E-07  1 -0.1807E-06
   (  2, 14, 32)  (  2, 13, 32)  (  2, 14, 32)  (  2, 13, 32)  (  2, 14, 32)
  0 -0.7824E-07  1  0.1522E-06  0  0.6538E-07  1 -0.1268E-06  0 -0.5533E-07
   (  2, 13, 32)  (  2, 14, 32)  (  2, 13, 32)  (  2, 14, 32)  (  2, 13, 32)
  1  0.1069E-06  0  0.4646E-07  1 -0.8953E-07  0 -0.3929E-07  1  0.7551E-07
   (  2, 14, 32)  (  2, 13, 32)  (  2, 14, 32)  (  2, 13, 32)  (  2, 14, 32)
  0  0.3309E-07  1 -0.6349E-07
   (  2, 13, 32)  (  2, 14, 32)



 OUTPUT CONTROL FOR STRESS PERIOD    2   TIME STEP   61
    SAVE HEAD FOR ALL LAYERS
    SAVE DRAWDOWN FOR ALL LAYERS
    SAVE BUDGET
    PRINT BUDGET
 UBDSV1 SAVING "         STORAGE" ON UNIT   9 AT TIME STEP 61, STRESS PERIOD   2
 UBDSV2 SAVING "   CONSTANT HEAD" ON UNIT   9 AT TIME STEP 61, STRESS PERIOD   2
 UBDSV1 SAVING "FLOW RIGHT FACE " ON UNIT   9 AT TIME STEP 61, STRESS PERIOD   2
 UBDSV1 SAVING "FLOW FRONT FACE " ON UNIT   9 AT TIME STEP 61, STRESS PERIOD   2
 UBDSV1 SAVING "FLOW LOWER FACE " ON UNIT   9 AT TIME STEP 61, STRESS PERIOD   2
 UBDSV4 SAVING "           WELLS" ON UNIT   9 AT TIME STEP 61, STRESS PERIOD   2
 UBDSV4 SAVING "   RIVER LEAKAGE" ON UNIT   9 AT TIME STEP 61, STRESS PERIOD   2
 UBDSV3 SAVING "              ET" ON UNIT   9 AT TIME STEP 61, STRESS PERIOD   2
 UBDSV4 SAVING " HEAD DEP BOUNDS" ON UNIT   9 AT TIME STEP 61, STRESS PERIOD   2
 UBDSV3 SAVING "        RECHARGE" ON UNIT   9 AT TIME STEP 61, STRESS PERIOD   2
 SOLVING FOR ZETA FOR LAYER     1 ZONE     2
     2 CALLS TO PCG ROUTINE FOR TIME STEP  61 IN STRESS PERIOD    2
     4 TOTAL ITERATIONS

 MAXIMUM HEAD CHANGE FOR EACH ITERATION (1 INDICATES THE FIRST INNER ITERATION):

    HEAD CHANGE    HEAD CHANGE    HEAD CHANGE    HEAD CHANGE    HEAD CHANGE 
   LAYER,ROW,COL  LAYER,ROW,COL  LAYER,ROW,COL  LAYER,ROW,COL  LAYER,ROW,COL
 ---------------------------------------------------------------------------
  1   34.77      0  0.4986E-01  0  0.8030E-03  1  0.3960E-05
   (  1, 18, 10)  (  1, 23,  7)  (  1, 24,  6)  (  1, 25,  5)

 MAXIMUM RESIDUAL FOR EACH ITERATION (1 INDICATES THE FIRST INNER ITERATION):

    RESIDUAL       RESIDUAL       RESIDUAL       RESIDUAL       RESIDUAL    
   LAYER,ROW,COL  LAYER,ROW,COL  LAYER,ROW,COL  LAYER,ROW,COL  LAYER,ROW,COL
 ---------------------------------------------------------------------------
  1 -0.1541E-04  0 -0.2674E-06  0 -0.1326E-08  1 -0.1899E-10
   (  1, 23,  7)  (  1, 24,  6)  (  1, 25,  5)  (  1, 24,  6)


 SOLVING FOR ZETA FOR LAYER     2 ZONE     2
     2 CALLS TO PCG ROUTINE FOR TIME STEP  61 IN STRESS PERIOD    2
     4 TOTAL ITERATIONS

 MAXIMUM HEAD CHANGE FOR EACH ITERATION (1 INDICATES THE FIRST INNER ITERATION):

    HEAD CHANGE    HEAD CHANGE    HEAD CHANGE    HEAD CHANGE    HEAD CHANGE 
   LAYER,ROW,COL  LAYER,ROW,COL  LAYER,ROW,COL  LAYER,ROW,COL  LAYER,ROW,COL
 ---------------------------------------------------------------------------
  1   4.222      0  0.5977E-01  0  0.7174E-03  1  0.8889E-05
   (  1, 15, 10)  (  1, 23,  9)  (  1, 24,  8)  (  1, 25,  7)

 MAXIMUM RESIDUAL FOR EACH ITERATION (1 INDICATES THE FIRST INNER ITERATION):

    RESIDUAL       RESIDUAL       RESIDUAL       RESIDUAL       RESIDUAL    
   LAYER,ROW,COL  LAYER,ROW,COL  LAYER,ROW,COL  LAYER,ROW,COL  LAYER,ROW,COL
 ---------------------------------------------------------------------------
  1 -0.1884E-04  0 -0.2283E-06  0 -0.2839E-08  1 -0.3980E-10
   (  1, 23,  9)  (  1, 24,  8)  (  1, 25,  7)  (  1, 24,  8)


 UBUDSV SAVING "      ZETASRF  1" ON UNIT170 AT TIME STEP 61, STRESS PERIOD    2


                      VOLUMETRIC SWI ZONE BUDGET FOR ENTIRE MODEL
                     AT END OF TIME STEP   61 IN STRESS PERIOD   2
                                      ZONE     1
  -----------------------------------------------------------------------------------

        CUMULATIVE VOLUMES      L**3       RATES FOR THIS TIME STEP      L**3/T
        ------------------                 ------------------------

              IN:                                      IN:
              ---                                      ---
             BOUNDARIES =   717431232.0000            BOUNDARIES =           0.1980
          CONSTANT HEAD =           0.0000         CONSTANT HEAD =           0.0000
            ZONE CHANGE =   181922464.0000           ZONE CHANGE =       6.0905E-02
       ZONE CHG TIP/TOE =     8847614.0000      ZONE CHG TIP/TOE =       6.7537E-03
            ZONE MIXING =           0.0000           ZONE MIXING =           0.0000

               TOTAL IN =   908201344.0000              TOTAL IN =           0.2657

             OUT:                                     OUT:
             ----                                     ----
             BOUNDARIES =   805467200.0000            BOUNDARIES =           0.2653
          CONSTANT HEAD =           0.0000         CONSTANT HEAD =           0.0000
            ZONE CHANGE =    29250634.0000           ZONE CHANGE =       6.8251E-03
       ZONE CHG TIP/TOE =     7299854.0000      ZONE CHG TIP/TOE =       6.7537E-03
            ZONE MIXING =      621744.8125           ZONE MIXING =           0.0000

              TOTAL OUT =   842639424.0000             TOTAL OUT =           0.2789

               IN - OUT =    65561920.0000              IN - OUT =      -1.3250E-02

    PERCENT DISCREPANCY =           7.49     PERCENT DISCREPANCY =          -4.87



                      VOLUMETRIC SWI ZONE BUDGET FOR ENTIRE MODEL
                     AT END OF TIME STEP   61 IN STRESS PERIOD   2
                                      ZONE     2
  -----------------------------------------------------------------------------------

        CUMULATIVE VOLUMES      L**3       RATES FOR THIS TIME STEP      L**3/T
        ------------------                 ------------------------

              IN:                                      IN:
              ---                                      ---
             BOUNDARIES =    78996688.0000            BOUNDARIES =           0.1196
          CONSTANT HEAD =           0.0000         CONSTANT HEAD =           0.0000
            ZONE CHANGE =    25283022.0000           ZONE CHANGE =       5.0280E-03
       ZONE CHG TIP/TOE =    15628466.0000      ZONE CHG TIP/TOE =       1.6000E-02
            ZONE MIXING =      621744.8125           ZONE MIXING =           0.0000

               TOTAL IN =   120529920.0000              TOTAL IN =           0.1407

             OUT:                                     OUT:
             ----                                     ----
             BOUNDARIES =    70808160.0000            BOUNDARIES =       9.6766E-02
          CONSTANT HEAD =           0.0000         CONSTANT HEAD =           0.0000
            ZONE CHANGE =    47810060.0000           ZONE CHANGE =       3.3468E-02
       ZONE CHG TIP/TOE =     5557122.5000      ZONE CHG TIP/TOE =       4.5662E-03
            ZONE MIXING =           0.0000           ZONE MIXING =           0.0000

              TOTAL OUT =   124175344.0000             TOTAL OUT =           0.1348

               IN - OUT =    -3645424.0000              IN - OUT =       5.8596E-03

    PERCENT DISCREPANCY =          -2.98     PERCENT DISCREPANCY =           4.25


 HEAD WILL BE SAVED ON UNIT   37 AT END OF TIME STEP   61, STRESS PERIOD    2

 DRAWDOWN WILL BE SAVED ON UNIT   38 AT END OF TIME STEP   61, STRESS PERIOD    2
1
  VOLUMETRIC BUDGET FOR ENTIRE MODEL AT END OF TIME STEP   61, STRESS PERIOD   2
  ------------------------------------------------------------------------------

     CUMULATIVE VOLUMES      L**3       RATES FOR THIS TIME STEP      L**3/T
     ------------------                 ------------------------

           IN:                                      IN:
           ---                                      ---
             STORAGE =    74437240.0000               STORAGE =       4.4524E-02
       CONSTANT HEAD =           0.0000         CONSTANT HEAD =           0.0000
               WELLS =           0.0000                 WELLS =           0.0000
       RIVER LEAKAGE =   150160736.0000         RIVER LEAKAGE =       4.1000E-02
                  ET =           0.0000                    ET =           0.0000
     HEAD DEP BOUNDS =    88684112.0000       HEAD DEP BOUNDS =           0.1216
            RECHARGE =   602488512.0000              RECHARGE =           0.1756
          SWIADDTOCH =           0.0000            SWIADDTOCH =           0.0000

            TOTAL IN =   915770624.0000              TOTAL IN =           0.3827

          OUT:                                     OUT:
          ----                                     ----
             STORAGE =       58732.7812               STORAGE =       5.9747E-05
       CONSTANT HEAD =           0.0000         CONSTANT HEAD =           0.0000
               WELLS =   371430976.0000                 WELLS =           0.3800
       RIVER LEAKAGE =    21630804.0000         RIVER LEAKAGE =           0.0000
                  ET =   166413648.0000                    ET =           0.0000
     HEAD DEP BOUNDS =   356249024.0000       HEAD DEP BOUNDS =       2.6406E-03
            RECHARGE =           0.0000              RECHARGE =           0.0000
          SWIADDTOCH =           0.0000            SWIADDTOCH =           0.0000

           TOTAL OUT =   915783168.0000             TOTAL OUT =           0.3827

            IN - OUT =      -12544.0000              IN - OUT =           0.0000

 PERCENT DISCREPANCY =          -0.00     PERCENT DISCREPANCY =           0.00






         TIME SUMMARY AT END OF TIME STEP   61 IN STRESS PERIOD    2
                    SECONDS     MINUTES      HOURS       DAYS        YEARS
                    -----------------------------------------------------------
   TIME STEP LENGTH 1.57680E+07 2.62800E+05  4380.0      182.50     0.49966    
 STRESS PERIOD TIME 9.61848E+08 1.60308E+07 2.67180E+05  11132.      30.479    
         TOTAL TIME 4.11545E+09 6.85909E+07 1.14318E+06  47633.      130.41    
1
 
 SOLVING FOR HEAD 

 CELL CONVERSIONS FOR ITER.=  2  LAYER=  1  STEP= 62  PERIOD=   2   (ROW,COL)
    DRY( 19, 34)   DRY( 23, 36)   DRY( 45, 22)   
    32 CALLS TO PCG ROUTINE FOR TIME STEP  62 IN STRESS PERIOD    2
    69 TOTAL ITERATIONS

 MAXIMUM HEAD CHANGE FOR EACH ITERATION (1 INDICATES THE FIRST INNER ITERATION):

    HEAD CHANGE    HEAD CHANGE    HEAD CHANGE    HEAD CHANGE    HEAD CHANGE 
   LAYER,ROW,COL  LAYER,ROW,COL  LAYER,ROW,COL  LAYER,ROW,COL  LAYER,ROW,COL
 ---------------------------------------------------------------------------
  1 -0.2131      0 -0.8534E-01  0  0.1520E-01  0 -0.5855E-02  0 -0.1150E-02
   (  1, 18, 10)  (  1, 15, 11)  (  2, 20,  9)  (  2, 12,  9)  (  1, 13,  8)
  0 -0.2905E-03  1 -0.4514E-01  0 -0.7580E-02  0 -0.2064E-02  0  0.4244E-03
   (  2, 35,  8)  (  2, 23, 36)  (  2, 46, 21)  (  2, 46, 21)  (  2, 50, 39)
  1 -0.5653E-02  0 -0.5665E-03  1  0.4841E-02  0  0.2834E-03  1 -0.4493E-02
   (  2, 50, 39)  (  2, 50, 39)  (  2, 13, 33)  (  2, 13, 33)  (  2, 13, 33)
  0 -0.2092E-03  1  0.4155E-02  0  0.1777E-03  1 -0.3842E-02  0 -0.1563E-03
   (  2, 13, 33)  (  2, 13, 33)  (  2, 13, 33)  (  2, 13, 33)  (  2, 13, 33)
  1  0.3552E-02  0  0.1406E-03  1 -0.3286E-02  0 -0.1263E-03  1  0.3039E-02
   (  2, 13, 33)  (  2, 13, 33)  (  2, 13, 33)  (  2, 13, 33)  (  2, 13, 33)
  0  0.1148E-03  1 -0.2814E-02  0 -0.1036E-03  1  0.2642E-02  0  0.9600E-04
   (  2, 13, 33)  (  2, 13, 33)  (  2, 11, 33)  (  2, 11, 33)  (  2, 11, 33)
  1 -0.2505E-02  0 -0.8921E-04  1  0.2377E-02  0  0.8282E-04  1 -0.2257E-02
   (  2, 11, 33)  (  2, 11, 33)  (  2, 11, 33)  (  2, 11, 33)  (  2, 11, 33)
  0 -0.7707E-04  1  0.2143E-02  0  0.7167E-04  1 -0.2036E-02  0 -0.6676E-04
   (  2, 11, 33)  (  2, 11, 33)  (  2, 11, 33)  (  2, 11, 33)  (  2, 11, 33)
  1  0.1935E-02  0  0.6214E-04  1 -0.1841E-02  0 -0.5792E-04  1  0.1751E-02
   (  2, 11, 33)  (  2, 11, 33)  (  2, 11, 33)  (  2, 11, 33)  (  2, 11, 33)
  0  0.5399E-04  1 -0.1667E-02  0 -0.5038E-04  1  0.1587E-02  0  0.4702E-04
   (  2, 11, 33)  (  2, 11, 33)  (  2, 11, 33)  (  2, 11, 33)  (  2, 11, 33)
  1 -0.1512E-02  0 -0.4392E-04  1  0.1441E-02  0  0.4103E-04  1 -0.1374E-02
   (  2, 11, 33)  (  2, 11, 33)  (  2, 11, 33)  (  2, 11, 33)  (  2, 11, 33)
  0 -0.3834E-04  1  0.1311E-02  0  0.3586E-04  1 -0.1251E-02  0 -0.3355E-04
   (  2, 11, 33)  (  2, 11, 33)  (  2, 11, 33)  (  2, 11, 33)  (  2, 11, 33)
  1  0.1194E-02  0  0.3138E-04  1 -0.1140E-02  0 -0.2938E-04  1  0.1089E-02
   (  2, 11, 33)  (  2, 11, 33)  (  2, 11, 33)  (  2, 11, 33)  (  2, 11, 33)
  0  0.2752E-04  1 -0.1041E-02  0 -0.2579E-04  1  0.9950E-03
   (  2, 11, 33)  (  2, 11, 33)  (  2, 11, 33)  (  2, 11, 33)

 MAXIMUM RESIDUAL FOR EACH ITERATION (1 INDICATES THE FIRST INNER ITERATION):

    RESIDUAL       RESIDUAL       RESIDUAL       RESIDUAL       RESIDUAL    
   LAYER,ROW,COL  LAYER,ROW,COL  LAYER,ROW,COL  LAYER,ROW,COL  LAYER,ROW,COL
 ---------------------------------------------------------------------------
  1 -0.3721E-03  0  0.1401E-03  0  0.5973E-04  0  0.1756E-04  0 -0.4352E-05
   (  2, 22,  9)  (  1, 13,  8)  (  1, 13,  8)  (  1, 13,  8)  (  2, 13,  8)
  0 -0.1475E-05  1  0.2908E-04  0  0.1052E-04  0  0.2408E-05  0  0.5486E-06
   (  2, 13,  8)  (  2, 45, 22)  (  2, 20, 33)  (  2, 44, 23)  (  2, 43, 24)
  1 -0.5361E-06  0  0.1587E-06  1 -0.3828E-06  0 -0.1600E-06  1  0.3726E-06
   (  2, 34,  9)  (  2, 10, 31)  (  2, 14, 32)  (  2, 13, 32)  (  2, 14, 32)
  0  0.1431E-06  1 -0.3288E-06  0 -0.1358E-06  1  0.3050E-06  0  0.1243E-06
   (  2, 13, 32)  (  2, 14, 32)  (  2, 13, 32)  (  2, 14, 32)  (  2, 13, 32)
  1 -0.2768E-06  0 -0.1168E-06  1  0.2572E-06  0  0.1079E-06  1 -0.2358E-06
   (  2, 14, 32)  (  2, 13, 32)  (  2, 14, 32)  (  2, 13, 32)  (  2, 14, 32)
  0 -0.1007E-06  1  0.2189E-06  0  0.9318E-07  1 -0.2016E-06  0 -0.8672E-07
   (  2, 13, 32)  (  2, 14, 32)  (  2, 13, 32)  (  2, 14, 32)  (  2, 13, 32)
  1  0.1872E-06  0  0.8037E-07  1 -0.1728E-06  0 -0.7476E-07  1  0.1606E-06
   (  2, 14, 32)  (  2, 13, 32)  (  2, 14, 32)  (  2, 13, 32)  (  2, 14, 32)
  0  0.6937E-07  1 -0.1486E-06  0 -0.6456E-07  1  0.1383E-06  0  0.6000E-07
   (  2, 13, 32)  (  2, 14, 32)  (  2, 13, 32)  (  2, 14, 32)  (  2, 13, 32)
  1 -0.1282E-06  0 -0.5586E-07  1  0.1193E-06  0  0.5197E-07  1 -0.1108E-06
   (  2, 14, 32)  (  2, 13, 32)  (  2, 14, 32)  (  2, 13, 32)  (  2, 14, 32)
  0 -0.4844E-07  1  0.1033E-06  0  0.4512E-07  1 -0.9604E-07  0 -0.4209E-07
   (  2, 13, 32)  (  2, 14, 32)  (  2, 13, 32)  (  2, 14, 32)  (  2, 13, 32)
  1  0.8962E-07  0  0.3924E-07  1 -0.8345E-07  0 -0.3664E-07  1  0.7793E-07
   (  2, 14, 32)  (  2, 13, 32)  (  2, 14, 32)  (  2, 13, 32)  (  2, 14, 32)
  0  0.3421E-07  1 -0.7264E-07  0 -0.3198E-07  1  0.6790E-07  0  0.2990E-07
   (  2, 13, 32)  (  2, 14, 32)  (  2, 13, 32)  (  2, 14, 32)  (  2, 13, 32)
  1 -0.6336E-07  0 -0.2796E-07  1  0.5927E-07  0  0.2614E-07  1 -0.5539E-07
   (  2, 14, 32)  (  2, 13, 32)  (  2, 14, 32)  (  2, 13, 32)  (  2, 14, 32)
  0 -0.2447E-07  1  0.5186E-07  0  0.2291E-07  1 -0.4849E-07
   (  2, 13, 32)  (  2, 14, 32)  (  2, 13, 32)  (  2, 14, 32)



 OUTPUT CONTROL FOR STRESS PERIOD    2   TIME STEP   62
    SAVE HEAD FOR ALL LAYERS
    SAVE DRAWDOWN FOR ALL LAYERS
    SAVE BUDGET
    PRINT BUDGET
 UBDSV1 SAVING "         STORAGE" ON UNIT   9 AT TIME STEP 62, STRESS PERIOD   2
 UBDSV2 SAVING "   CONSTANT HEAD" ON UNIT   9 AT TIME STEP 62, STRESS PERIOD   2
 UBDSV1 SAVING "FLOW RIGHT FACE " ON UNIT   9 AT TIME STEP 62, STRESS PERIOD   2
 UBDSV1 SAVING "FLOW FRONT FACE " ON UNIT   9 AT TIME STEP 62, STRESS PERIOD   2
 UBDSV1 SAVING "FLOW LOWER FACE " ON UNIT   9 AT TIME STEP 62, STRESS PERIOD   2
 UBDSV4 SAVING "           WELLS" ON UNIT   9 AT TIME STEP 62, STRESS PERIOD   2
 UBDSV4 SAVING "   RIVER LEAKAGE" ON UNIT   9 AT TIME STEP 62, STRESS PERIOD   2
 UBDSV3 SAVING "              ET" ON UNIT   9 AT TIME STEP 62, STRESS PERIOD   2
 UBDSV4 SAVING " HEAD DEP BOUNDS" ON UNIT   9 AT TIME STEP 62, STRESS PERIOD   2
 UBDSV3 SAVING "        RECHARGE" ON UNIT   9 AT TIME STEP 62, STRESS PERIOD   2
 SOLVING FOR ZETA FOR LAYER     1 ZONE     2
     2 CALLS TO PCG ROUTINE FOR TIME STEP  62 IN STRESS PERIOD    2
     4 TOTAL ITERATIONS

 MAXIMUM HEAD CHANGE FOR EACH ITERATION (1 INDICATES THE FIRST INNER ITERATION):

    HEAD CHANGE    HEAD CHANGE    HEAD CHANGE    HEAD CHANGE    HEAD CHANGE 
   LAYER,ROW,COL  LAYER,ROW,COL  LAYER,ROW,COL  LAYER,ROW,COL  LAYER,ROW,COL
 ---------------------------------------------------------------------------
  1   16.68      0  0.9806E-01  0  0.8668E-03  1  0.9893E-05
   (  1, 15,  9)  (  1, 14, 10)  (  1, 24,  6)  (  1, 23,  7)

 MAXIMUM RESIDUAL FOR EACH ITERATION (1 INDICATES THE FIRST INNER ITERATION):

    RESIDUAL       RESIDUAL       RESIDUAL       RESIDUAL       RESIDUAL    
   LAYER,ROW,COL  LAYER,ROW,COL  LAYER,ROW,COL  LAYER,ROW,COL  LAYER,ROW,COL
 ---------------------------------------------------------------------------
  1 -0.2704E-04  0 -0.2977E-06  0 -0.2953E-08  1 -0.7102E-10
   (  1, 14, 10)  (  1, 24,  6)  (  1, 23,  7)  (  1, 24,  6)


 SOLVING FOR ZETA FOR LAYER     2 ZONE     2
     2 CALLS TO PCG ROUTINE FOR TIME STEP  62 IN STRESS PERIOD    2
     4 TOTAL ITERATIONS

 MAXIMUM HEAD CHANGE FOR EACH ITERATION (1 INDICATES THE FIRST INNER ITERATION):

    HEAD CHANGE    HEAD CHANGE    HEAD CHANGE    HEAD CHANGE    HEAD CHANGE 
   LAYER,ROW,COL  LAYER,ROW,COL  LAYER,ROW,COL  LAYER,ROW,COL  LAYER,ROW,COL
 ---------------------------------------------------------------------------
  1  -6.066      0 -0.4318E-01  0 -0.7433E-03  1 -0.6105E-05
   (  1, 23,  9)  (  1, 24,  8)  (  1, 25,  7)  (  1, 24,  8)

 MAXIMUM RESIDUAL FOR EACH ITERATION (1 INDICATES THE FIRST INNER ITERATION):

    RESIDUAL       RESIDUAL       RESIDUAL       RESIDUAL       RESIDUAL    
   LAYER,ROW,COL  LAYER,ROW,COL  LAYER,ROW,COL  LAYER,ROW,COL  LAYER,ROW,COL
 ---------------------------------------------------------------------------
  1  0.1385E-04  0  0.2431E-06  0  0.1924E-08  1 -0.3270E-10
   (  1, 24,  8)  (  1, 25,  7)  (  1, 24,  8)  (  1, 30,  4)


 UBUDSV SAVING "      ZETASRF  1" ON UNIT170 AT TIME STEP 62, STRESS PERIOD    2


                      VOLUMETRIC SWI ZONE BUDGET FOR ENTIRE MODEL
                     AT END OF TIME STEP   62 IN STRESS PERIOD   2
                                      ZONE     1
  -----------------------------------------------------------------------------------

        CUMULATIVE VOLUMES      L**3       RATES FOR THIS TIME STEP      L**3/T
        ------------------                 ------------------------

              IN:                                      IN:
              ---                                      ---
             BOUNDARIES =   720545280.0000            BOUNDARIES =           0.1975
          CONSTANT HEAD =           0.0000         CONSTANT HEAD =           0.0000
            ZONE CHANGE =   182945184.0000           ZONE CHANGE =       6.4861E-02
       ZONE CHG TIP/TOE =     8916467.0000      ZONE CHG TIP/TOE =       4.3666E-03
            ZONE MIXING =           0.0000           ZONE MIXING =           0.0000

               TOTAL IN =   912406912.0000              TOTAL IN =           0.2667

             OUT:                                     OUT:
             ----                                     ----
             BOUNDARIES =   809721472.0000            BOUNDARIES =           0.2698
          CONSTANT HEAD =           0.0000         CONSTANT HEAD =           0.0000
            ZONE CHANGE =    29373570.0000           ZONE CHANGE =       7.7965E-03
       ZONE CHG TIP/TOE =     7313251.5000      ZONE CHG TIP/TOE =       8.4965E-04
            ZONE MIXING =      621744.8125           ZONE MIXING =           0.0000

              TOTAL OUT =   847030016.0000             TOTAL OUT =           0.2785

               IN - OUT =    65376896.0000              IN - OUT =      -1.1732E-02

    PERCENT DISCREPANCY =           7.43     PERCENT DISCREPANCY =          -4.30



                      VOLUMETRIC SWI ZONE BUDGET FOR ENTIRE MODEL
                     AT END OF TIME STEP   62 IN STRESS PERIOD   2
                                      ZONE     2
  -----------------------------------------------------------------------------------

        CUMULATIVE VOLUMES      L**3       RATES FOR THIS TIME STEP      L**3/T
        ------------------                 ------------------------

              IN:                                      IN:
              ---                                      ---
             BOUNDARIES =    80895224.0000            BOUNDARIES =           0.1204
          CONSTANT HEAD =           0.0000         CONSTANT HEAD =           0.0000
            ZONE CHANGE =    25384958.0000           ZONE CHANGE =       6.4648E-03
       ZONE CHG TIP/TOE =    15735792.0000      ZONE CHG TIP/TOE =       6.8066E-03
            ZONE MIXING =      621744.8125           ZONE MIXING =           0.0000

               TOTAL IN =   122637720.0000              TOTAL IN =           0.1337

             OUT:                                     OUT:
             ----                                     ----
             BOUNDARIES =    72261120.0000            BOUNDARIES =       9.2146E-02
          CONSTANT HEAD =           0.0000         CONSTANT HEAD =           0.0000
            ZONE CHANGE =    48355908.0000           ZONE CHANGE =       3.4618E-02
       ZONE CHG TIP/TOE =     5596576.5000      ZONE CHG TIP/TOE =       2.5022E-03
            ZONE MIXING =           0.0000           ZONE MIXING =           0.0000

              TOTAL OUT =   126213600.0000             TOTAL OUT =           0.1293

               IN - OUT =    -3575880.0000              IN - OUT =       4.4097E-03

    PERCENT DISCREPANCY =          -2.87     PERCENT DISCREPANCY =           3.35


 HEAD WILL BE SAVED ON UNIT   37 AT END OF TIME STEP   62, STRESS PERIOD    2

 DRAWDOWN WILL BE SAVED ON UNIT   38 AT END OF TIME STEP   62, STRESS PERIOD    2
1
  VOLUMETRIC BUDGET FOR ENTIRE MODEL AT END OF TIME STEP   62, STRESS PERIOD   2
  ------------------------------------------------------------------------------

     CUMULATIVE VOLUMES      L**3       RATES FOR THIS TIME STEP      L**3/T
     ------------------                 ------------------------

           IN:                                      IN:
           ---                                      ---
             STORAGE =    75133224.0000               STORAGE =       4.4139E-02
       CONSTANT HEAD =           0.0000         CONSTANT HEAD =           0.0000
               WELLS =           0.0000                 WELLS =           0.0000
       RIVER LEAKAGE =   150807232.0000         RIVER LEAKAGE =       4.1000E-02
                  ET =           0.0000                    ET =           0.0000
     HEAD DEP BOUNDS =    90614200.0000       HEAD DEP BOUNDS =           0.1224
            RECHARGE =   605248512.0000              RECHARGE =           0.1750
          SWIADDTOCH =           0.0000            SWIADDTOCH =           0.0000

            TOTAL IN =   921803136.0000              TOTAL IN =           0.3826

          OUT:                                     OUT:
          ----                                     ----
             STORAGE =       60059.0156               STORAGE =       8.4109E-05
       CONSTANT HEAD =           0.0000         CONSTANT HEAD =           0.0000
               WELLS =   377422816.0000                 WELLS =           0.3800
       RIVER LEAKAGE =    21630804.0000         RIVER LEAKAGE =           0.0000
                  ET =   166413648.0000                    ET =           0.0000
     HEAD DEP BOUNDS =   356288416.0000       HEAD DEP BOUNDS =       2.4983E-03
            RECHARGE =           0.0000              RECHARGE =           0.0000
          SWIADDTOCH =           0.0000            SWIADDTOCH =           0.0000

           TOTAL OUT =   921815808.0000             TOTAL OUT =           0.3826

            IN - OUT =      -12672.0000              IN - OUT =           0.0000

 PERCENT DISCREPANCY =          -0.00     PERCENT DISCREPANCY =           0.00






         TIME SUMMARY AT END OF TIME STEP   62 IN STRESS PERIOD    2
                    SECONDS     MINUTES      HOURS       DAYS        YEARS
                    -----------------------------------------------------------
   TIME STEP LENGTH 1.57680E+07 2.62800E+05  4380.0      182.50     0.49966    
 STRESS PERIOD TIME 9.77616E+08 1.62936E+07 2.71560E+05  11315.      30.979    
         TOTAL TIME 4.13122E+09 6.88537E+07 1.14756E+06  47815.      130.91    
1
 
 SOLVING FOR HEAD 

 CELL CONVERSIONS FOR ITER.=  2  LAYER=  1  STEP= 63  PERIOD=   2   (ROW,COL)
    DRY( 10, 22)   

 CELL CONVERSIONS FOR ITER.=  2  LAYER=  2  STEP= 63  PERIOD=   2   (ROW,COL)
    DRY( 11, 33)   DRY( 13, 33)   
     6 CALLS TO PCG ROUTINE FOR TIME STEP  63 IN STRESS PERIOD    2
    17 TOTAL ITERATIONS

 MAXIMUM HEAD CHANGE FOR EACH ITERATION (1 INDICATES THE FIRST INNER ITERATION):

    HEAD CHANGE    HEAD CHANGE    HEAD CHANGE    HEAD CHANGE    HEAD CHANGE 
   LAYER,ROW,COL  LAYER,ROW,COL  LAYER,ROW,COL  LAYER,ROW,COL  LAYER,ROW,COL
 ---------------------------------------------------------------------------
  1 -0.2748      0  0.5559E-01  0 -0.1489E-01  0 -0.4599E-02  0 -0.1301E-02
   (  1, 20, 10)  (  1, 17, 12)  (  2, 16, 11)  (  2,  8, 11)  (  2,  5, 12)
  0  0.4665E-03  1 -0.4131E-01  0  0.5155E-02  0  0.1347E-02  0  0.3908E-03
   (  2,  5, 12)  (  2, 10, 22)  (  2, 50, 39)  (  2, 50, 39)  (  2, 50, 39)
  1 -0.6141E-02  0 -0.6161E-03  1  0.2227E-02  0  0.2142E-03  1 -0.1423E-02
   (  2, 50, 39)  (  2, 50, 39)  (  2, 52, 39)  (  2, 52, 39)  (  2, 52, 39)
  0 -0.7519E-04  1  0.8857E-03
   (  2, 52, 39)  (  2, 52, 39)

 MAXIMUM RESIDUAL FOR EACH ITERATION (1 INDICATES THE FIRST INNER ITERATION):

    RESIDUAL       RESIDUAL       RESIDUAL       RESIDUAL       RESIDUAL    
   LAYER,ROW,COL  LAYER,ROW,COL  LAYER,ROW,COL  LAYER,ROW,COL  LAYER,ROW,COL
 ---------------------------------------------------------------------------
  1  0.4448E-03  0 -0.1517E-03  0 -0.4573E-04  0 -0.1181E-04  0  0.4687E-05
   (  2, 13,  9)  (  1, 14,  9)  (  1, 14,  9)  (  2, 21,  9)  (  2, 16, 10)
  0  0.1580E-05  1  0.3715E-04  0  0.1091E-04  0  0.2858E-05  0 -0.8025E-06
   (  2, 16, 10)  (  2, 10, 22)  (  2,  9, 23)  (  2,  9, 23)  (  2,  9, 24)
  1 -0.4830E-06  0 -0.1271E-06  1  0.1349E-06  0 -0.6083E-07  1  0.7963E-07
   (  2, 18, 11)  (  2, 20,  9)  (  2, 11, 30)  (  2, 10, 31)  (  2, 14, 35)
  0  0.3698E-07  1 -0.5992E-07
   (  2, 14, 35)  (  2, 14, 35)



 OUTPUT CONTROL FOR STRESS PERIOD    2   TIME STEP   63
    SAVE HEAD FOR ALL LAYERS
    SAVE DRAWDOWN FOR ALL LAYERS
    SAVE BUDGET
    PRINT BUDGET
 UBDSV1 SAVING "         STORAGE" ON UNIT   9 AT TIME STEP 63, STRESS PERIOD   2
 UBDSV2 SAVING "   CONSTANT HEAD" ON UNIT   9 AT TIME STEP 63, STRESS PERIOD   2
 UBDSV1 SAVING "FLOW RIGHT FACE " ON UNIT   9 AT TIME STEP 63, STRESS PERIOD   2
 UBDSV1 SAVING "FLOW FRONT FACE " ON UNIT   9 AT TIME STEP 63, STRESS PERIOD   2
 UBDSV1 SAVING "FLOW LOWER FACE " ON UNIT   9 AT TIME STEP 63, STRESS PERIOD   2
 UBDSV4 SAVING "           WELLS" ON UNIT   9 AT TIME STEP 63, STRESS PERIOD   2
 UBDSV4 SAVING "   RIVER LEAKAGE" ON UNIT   9 AT TIME STEP 63, STRESS PERIOD   2
 UBDSV3 SAVING "              ET" ON UNIT   9 AT TIME STEP 63, STRESS PERIOD   2
 UBDSV4 SAVING " HEAD DEP BOUNDS" ON UNIT   9 AT TIME STEP 63, STRESS PERIOD   2
 UBDSV3 SAVING "        RECHARGE" ON UNIT   9 AT TIME STEP 63, STRESS PERIOD   2
 SOLVING FOR ZETA FOR LAYER     1 ZONE     2
     2 CALLS TO PCG ROUTINE FOR TIME STEP  63 IN STRESS PERIOD    2
     4 TOTAL ITERATIONS

 MAXIMUM HEAD CHANGE FOR EACH ITERATION (1 INDICATES THE FIRST INNER ITERATION):

    HEAD CHANGE    HEAD CHANGE    HEAD CHANGE    HEAD CHANGE    HEAD CHANGE 
   LAYER,ROW,COL  LAYER,ROW,COL  LAYER,ROW,COL  LAYER,ROW,COL  LAYER,ROW,COL
 ---------------------------------------------------------------------------
  1   19.82      0  0.2640E-01  0  0.5652E-03  1  0.4824E-05
   (  1, 17, 11)  (  1, 25,  5)  (  1, 24,  6)  (  1, 23,  7)

 MAXIMUM RESIDUAL FOR EACH ITERATION (1 INDICATES THE FIRST INNER ITERATION):

    RESIDUAL       RESIDUAL       RESIDUAL       RESIDUAL       RESIDUAL    
   LAYER,ROW,COL  LAYER,ROW,COL  LAYER,ROW,COL  LAYER,ROW,COL  LAYER,ROW,COL
 ---------------------------------------------------------------------------
  1 -0.8735E-05  0 -0.1911E-06  0 -0.1456E-08  1 -0.2508E-10
   (  1, 25,  5)  (  1, 24,  6)  (  1, 23,  7)  (  1, 24,  6)


 SOLVING FOR ZETA FOR LAYER     2 ZONE     2
     2 CALLS TO PCG ROUTINE FOR TIME STEP  63 IN STRESS PERIOD    2
     4 TOTAL ITERATIONS

 MAXIMUM HEAD CHANGE FOR EACH ITERATION (1 INDICATES THE FIRST INNER ITERATION):

    HEAD CHANGE    HEAD CHANGE    HEAD CHANGE    HEAD CHANGE    HEAD CHANGE 
   LAYER,ROW,COL  LAYER,ROW,COL  LAYER,ROW,COL  LAYER,ROW,COL  LAYER,ROW,COL
 ---------------------------------------------------------------------------
  1  -5.159      0  0.4278E-01  0 -0.5493E-03  1  0.4577E-05
   (  1, 23,  9)  (  1, 12,  9)  (  1, 25,  7)  (  1, 25,  7)

 MAXIMUM RESIDUAL FOR EACH ITERATION (1 INDICATES THE FIRST INNER ITERATION):

    RESIDUAL       RESIDUAL       RESIDUAL       RESIDUAL       RESIDUAL    
   LAYER,ROW,COL  LAYER,ROW,COL  LAYER,ROW,COL  LAYER,ROW,COL  LAYER,ROW,COL
 ---------------------------------------------------------------------------
  1 -0.1249E-04  0  0.1818E-06  0 -0.1474E-08  1 -0.3896E-10
   (  1, 12,  9)  (  1, 25,  7)  (  1, 31,  3)  (  1, 29,  4)


 UBUDSV SAVING "      ZETASRF  1" ON UNIT170 AT TIME STEP 63, STRESS PERIOD    2


                      VOLUMETRIC SWI ZONE BUDGET FOR ENTIRE MODEL
                     AT END OF TIME STEP   63 IN STRESS PERIOD   2
                                      ZONE     1
  -----------------------------------------------------------------------------------

        CUMULATIVE VOLUMES      L**3       RATES FOR THIS TIME STEP      L**3/T
        ------------------                 ------------------------

              IN:                                      IN:
              ---                                      ---
             BOUNDARIES =   723657536.0000            BOUNDARIES =           0.1974
          CONSTANT HEAD =           0.0000         CONSTANT HEAD =           0.0000
            ZONE CHANGE =   183901648.0000           ZONE CHANGE =       6.0659E-02
       ZONE CHG TIP/TOE =     9090238.0000      ZONE CHG TIP/TOE =       1.1020E-02
            ZONE MIXING =           0.0000           ZONE MIXING =           0.0000

               TOTAL IN =   916649408.0000              TOTAL IN =           0.2691

             OUT:                                     OUT:
             ----                                     ----
             BOUNDARIES =   813746240.0000            BOUNDARIES =           0.2552
          CONSTANT HEAD =           0.0000         CONSTANT HEAD =           0.0000
            ZONE CHANGE =    29519328.0000           ZONE CHANGE =       9.2439E-03
       ZONE CHG TIP/TOE =     7397382.0000      ZONE CHG TIP/TOE =       5.3355E-03
            ZONE MIXING =      621744.8125           ZONE MIXING =           0.0000

              TOTAL OUT =   851284672.0000             TOTAL OUT =           0.2698

               IN - OUT =    65364736.0000              IN - OUT =      -7.7045E-04

    PERCENT DISCREPANCY =           7.39     PERCENT DISCREPANCY =          -0.29



                      VOLUMETRIC SWI ZONE BUDGET FOR ENTIRE MODEL
                     AT END OF TIME STEP   63 IN STRESS PERIOD   2
                                      ZONE     2
  -----------------------------------------------------------------------------------

        CUMULATIVE VOLUMES      L**3       RATES FOR THIS TIME STEP      L**3/T
        ------------------                 ------------------------

              IN:                                      IN:
              ---                                      ---
             BOUNDARIES =    82802144.0000            BOUNDARIES =           0.1209
          CONSTANT HEAD =           0.0000         CONSTANT HEAD =           0.0000
            ZONE CHANGE =    25478634.0000           ZONE CHANGE =       5.9409E-03
       ZONE CHG TIP/TOE =    15880705.0000      ZONE CHG TIP/TOE =       9.1903E-03
            ZONE MIXING =      621744.8125           ZONE MIXING =           0.0000

               TOTAL IN =   124783232.0000              TOTAL IN =           0.1361

             OUT:                                     OUT:
             ----                                     ----
             BOUNDARIES =    73941600.0000            BOUNDARIES =           0.1066
          CONSTANT HEAD =           0.0000         CONSTANT HEAD =           0.0000
            ZONE CHANGE =    48805960.0000           ZONE CHANGE =       2.8542E-02
       ZONE CHG TIP/TOE =     5713437.5000      ZONE CHG TIP/TOE =       7.4113E-03
            ZONE MIXING =           0.0000           ZONE MIXING =           0.0000

              TOTAL OUT =   128460992.0000             TOTAL OUT =           0.1425

               IN - OUT =    -3677760.0000              IN - OUT =      -6.4613E-03

    PERCENT DISCREPANCY =          -2.90     PERCENT DISCREPANCY =          -4.64


 HEAD WILL BE SAVED ON UNIT   37 AT END OF TIME STEP   63, STRESS PERIOD    2

 DRAWDOWN WILL BE SAVED ON UNIT   38 AT END OF TIME STEP   63, STRESS PERIOD    2
1
  VOLUMETRIC BUDGET FOR ENTIRE MODEL AT END OF TIME STEP   63, STRESS PERIOD   2
  ------------------------------------------------------------------------------

     CUMULATIVE VOLUMES      L**3       RATES FOR THIS TIME STEP      L**3/T
     ------------------                 ------------------------

           IN:                                      IN:
           ---                                      ---
             STORAGE =    75820504.0000               STORAGE =       4.3587E-02
       CONSTANT HEAD =           0.0000         CONSTANT HEAD =           0.0000
               WELLS =           0.0000                 WELLS =           0.0000
       RIVER LEAKAGE =   151453728.0000         RIVER LEAKAGE =       4.1000E-02
                  ET =           0.0000                    ET =           0.0000
     HEAD DEP BOUNDS =    92553880.0000       HEAD DEP BOUNDS =           0.1230
            RECHARGE =   608005504.0000              RECHARGE =           0.1748
          SWIADDTOCH =           0.0000            SWIADDTOCH =           0.0000

            TOTAL IN =   927833600.0000              TOTAL IN =           0.3824

          OUT:                                     OUT:
          ----                                     ----
             STORAGE =       61283.9180               STORAGE =       7.7683E-05
       CONSTANT HEAD =           0.0000         CONSTANT HEAD =           0.0000
               WELLS =   383414656.0000                 WELLS =           0.3800
       RIVER LEAKAGE =    21630804.0000         RIVER LEAKAGE =           0.0000
                  ET =   166413648.0000                    ET =           0.0000
     HEAD DEP BOUNDS =   356325792.0000       HEAD DEP BOUNDS =       2.3707E-03
            RECHARGE =           0.0000              RECHARGE =           0.0000
          SWIADDTOCH =           0.0000            SWIADDTOCH =           0.0000

           TOTAL OUT =   927846144.0000             TOTAL OUT =           0.3824

            IN - OUT =      -12544.0000              IN - OUT =           0.0000

 PERCENT DISCREPANCY =          -0.00     PERCENT DISCREPANCY =           0.00






         TIME SUMMARY AT END OF TIME STEP   63 IN STRESS PERIOD    2
                    SECONDS     MINUTES      HOURS       DAYS        YEARS
                    -----------------------------------------------------------
   TIME STEP LENGTH 1.57680E+07 2.62800E+05  4380.0      182.50     0.49966    
 STRESS PERIOD TIME 9.93384E+08 1.65564E+07 2.75940E+05  11498.      31.478    
         TOTAL TIME 4.14699E+09 6.91165E+07 1.15194E+06  47998.      131.41    
1
 
 SOLVING FOR HEAD 

 CELL CONVERSIONS FOR ITER.=  2  LAYER=  1  STEP= 64  PERIOD=   2   (ROW,COL)
    DRY( 35, 32)   DRY( 44, 25)   

 CELL CONVERSIONS FOR ITER.=  5  LAYER=  1  STEP= 64  PERIOD=   2   (ROW,COL)
    DRY( 44, 30)   
     7 CALLS TO PCG ROUTINE FOR TIME STEP  64 IN STRESS PERIOD    2
    22 TOTAL ITERATIONS

 MAXIMUM HEAD CHANGE FOR EACH ITERATION (1 INDICATES THE FIRST INNER ITERATION):

    HEAD CHANGE    HEAD CHANGE    HEAD CHANGE    HEAD CHANGE    HEAD CHANGE 
   LAYER,ROW,COL  LAYER,ROW,COL  LAYER,ROW,COL  LAYER,ROW,COL  LAYER,ROW,COL
 ---------------------------------------------------------------------------
  1 -0.2948      0  0.1077      0 -0.2201E-01  0 -0.4847E-02  0 -0.1441E-02
   (  1, 13,  8)  (  2, 13, 10)  (  1, 14,  9)  (  2, 18, 11)  (  2, 15,  8)
  0  0.6626E-03  1 -0.5564E-01  0  0.1434E-01  0  0.2031E-02  0  0.3757E-03
   (  2,  5, 11)  (  2, 35, 32)  (  2, 44, 25)  (  2, 35, 32)  (  2, 35, 32)
  1 -0.7665E-02  0  0.2837E-03  1  0.2887E-02  0  0.2380E-03  1 -0.2345    
   (  2, 50, 39)  (  2,  5, 11)  (  2, 50, 39)  (  2, 44, 30)  (  2, 44, 30)
  0 -0.2697E-01  0 -0.5766E-02  0 -0.1015E-02  0 -0.2497E-03  1  0.1075E-02
   (  2, 43, 32)  (  2, 45, 29)  (  2, 50, 24)  (  2, 38, 37)  (  1, 43, 30)
  0  0.2905E-03  1 -0.2413E-03
   (  2, 52, 39)  (  2, 52, 39)

 MAXIMUM RESIDUAL FOR EACH ITERATION (1 INDICATES THE FIRST INNER ITERATION):

    RESIDUAL       RESIDUAL       RESIDUAL       RESIDUAL       RESIDUAL    
   LAYER,ROW,COL  LAYER,ROW,COL  LAYER,ROW,COL  LAYER,ROW,COL  LAYER,ROW,COL
 ---------------------------------------------------------------------------
  1 -0.6919E-03  0 -0.1936E-03  0  0.5099E-04  0 -0.1403E-04  0 -0.5010E-05
   (  2, 13,  9)  (  1, 13,  8)  (  2, 13, 10)  (  1, 20, 10)  (  1, 17, 11)
  0 -0.1507E-05  1  0.1442E-02  0  0.1240E-03  0  0.2252E-04  0  0.5380E-05
   (  2, 13,  7)  (  1, 44, 30)  (  1, 44, 30)  (  1, 44, 30)  (  1, 44, 30)
  1  0.1462E-05  0  0.3486E-06  1 -0.1112E-04  0 -0.2795E-05  1  0.1249E-03
   (  1, 44, 30)  (  1, 44, 30)  (  2, 44, 30)  (  2, 44, 30)  (  2, 43, 31)
  0  0.4067E-04  0  0.4261E-05  0  0.1845E-05  0  0.5621E-06  1 -0.1201E-05
   (  2, 43, 31)  (  2, 43, 31)  (  2, 42, 32)  (  2, 46, 28)  (  1, 43, 30)
  0 -0.4498E-06  1 -0.2167E-06
   (  2, 42, 31)  (  1, 43, 30)



 OUTPUT CONTROL FOR STRESS PERIOD    2   TIME STEP   64
    SAVE HEAD FOR ALL LAYERS
    SAVE DRAWDOWN FOR ALL LAYERS
    SAVE BUDGET
    PRINT BUDGET
 UBDSV1 SAVING "         STORAGE" ON UNIT   9 AT TIME STEP 64, STRESS PERIOD   2
 UBDSV2 SAVING "   CONSTANT HEAD" ON UNIT   9 AT TIME STEP 64, STRESS PERIOD   2
 UBDSV1 SAVING "FLOW RIGHT FACE " ON UNIT   9 AT TIME STEP 64, STRESS PERIOD   2
 UBDSV1 SAVING "FLOW FRONT FACE " ON UNIT   9 AT TIME STEP 64, STRESS PERIOD   2
 UBDSV1 SAVING "FLOW LOWER FACE " ON UNIT   9 AT TIME STEP 64, STRESS PERIOD   2
 UBDSV4 SAVING "           WELLS" ON UNIT   9 AT TIME STEP 64, STRESS PERIOD   2
 UBDSV4 SAVING "   RIVER LEAKAGE" ON UNIT   9 AT TIME STEP 64, STRESS PERIOD   2
 UBDSV3 SAVING "              ET" ON UNIT   9 AT TIME STEP 64, STRESS PERIOD   2
 UBDSV4 SAVING " HEAD DEP BOUNDS" ON UNIT   9 AT TIME STEP 64, STRESS PERIOD   2
 UBDSV3 SAVING "        RECHARGE" ON UNIT   9 AT TIME STEP 64, STRESS PERIOD   2
 SOLVING FOR ZETA FOR LAYER     1 ZONE     2
     2 CALLS TO PCG ROUTINE FOR TIME STEP  64 IN STRESS PERIOD    2
     4 TOTAL ITERATIONS

 MAXIMUM HEAD CHANGE FOR EACH ITERATION (1 INDICATES THE FIRST INNER ITERATION):

    HEAD CHANGE    HEAD CHANGE    HEAD CHANGE    HEAD CHANGE    HEAD CHANGE 
   LAYER,ROW,COL  LAYER,ROW,COL  LAYER,ROW,COL  LAYER,ROW,COL  LAYER,ROW,COL
 ---------------------------------------------------------------------------
  1   32.57      0  0.5483E-01  0  0.6029E-03  1  0.8490E-05
   (  1, 18, 10)  (  1, 18, 11)  (  1, 24,  6)  (  1, 23,  7)

 MAXIMUM RESIDUAL FOR EACH ITERATION (1 INDICATES THE FIRST INNER ITERATION):

    RESIDUAL       RESIDUAL       RESIDUAL       RESIDUAL       RESIDUAL    
   LAYER,ROW,COL  LAYER,ROW,COL  LAYER,ROW,COL  LAYER,ROW,COL  LAYER,ROW,COL
 ---------------------------------------------------------------------------
  1 -0.1475E-04  0 -0.2089E-06  0 -0.2601E-08  1 -0.6234E-10
   (  1, 18, 11)  (  1, 24,  6)  (  1, 23,  7)  (  1, 24,  6)


 SOLVING FOR ZETA FOR LAYER     2 ZONE     2
     2 CALLS TO PCG ROUTINE FOR TIME STEP  64 IN STRESS PERIOD    2
     4 TOTAL ITERATIONS

 MAXIMUM HEAD CHANGE FOR EACH ITERATION (1 INDICATES THE FIRST INNER ITERATION):

    HEAD CHANGE    HEAD CHANGE    HEAD CHANGE    HEAD CHANGE    HEAD CHANGE 
   LAYER,ROW,COL  LAYER,ROW,COL  LAYER,ROW,COL  LAYER,ROW,COL  LAYER,ROW,COL
 ---------------------------------------------------------------------------
  1   4.511      0  0.4319E-01  0 -0.4004E-03  1  0.5979E-05
   (  1, 17, 11)  (  1, 12,  9)  (  1, 25,  7)  (  1, 25,  7)

 MAXIMUM RESIDUAL FOR EACH ITERATION (1 INDICATES THE FIRST INNER ITERATION):

    RESIDUAL       RESIDUAL       RESIDUAL       RESIDUAL       RESIDUAL    
   LAYER,ROW,COL  LAYER,ROW,COL  LAYER,ROW,COL  LAYER,ROW,COL  LAYER,ROW,COL
 ---------------------------------------------------------------------------
  1 -0.1268E-04  0 -0.1346E-06  0 -0.1892E-08  1 -0.4503E-10
   (  1, 12,  9)  (  1,  8,  9)  (  1, 25,  7)  (  1, 29,  4)


 UBUDSV SAVING "      ZETASRF  1" ON UNIT170 AT TIME STEP 64, STRESS PERIOD    2


                      VOLUMETRIC SWI ZONE BUDGET FOR ENTIRE MODEL
                     AT END OF TIME STEP   64 IN STRESS PERIOD   2
                                      ZONE     1
  -----------------------------------------------------------------------------------

        CUMULATIVE VOLUMES      L**3       RATES FOR THIS TIME STEP      L**3/T
        ------------------                 ------------------------

              IN:                                      IN:
              ---                                      ---
             BOUNDARIES =   726746304.0000            BOUNDARIES =           0.1959
          CONSTANT HEAD =           0.0000         CONSTANT HEAD =           0.0000
            ZONE CHANGE =   184970800.0000           ZONE CHANGE =       6.7805E-02
       ZONE CHG TIP/TOE =     9232240.0000      ZONE CHG TIP/TOE =       9.0057E-03
            ZONE MIXING =           0.0000           ZONE MIXING =           0.0000

               TOTAL IN =   920949376.0000              TOTAL IN =           0.2727

             OUT:                                     OUT:
             ----                                     ----
             BOUNDARIES =   817999552.0000            BOUNDARIES =           0.2697
          CONSTANT HEAD =           0.0000         CONSTANT HEAD =           0.0000
            ZONE CHANGE =    29574914.0000           ZONE CHANGE =       3.5252E-03
       ZONE CHG TIP/TOE =     7517345.0000      ZONE CHG TIP/TOE =       7.6080E-03
            ZONE MIXING =      692763.7500           ZONE MIXING =       4.5040E-03

              TOTAL OUT =   855784576.0000             TOTAL OUT =           0.2854

               IN - OUT =    65164800.0000              IN - OUT =      -1.2683E-02

    PERCENT DISCREPANCY =           7.34     PERCENT DISCREPANCY =          -4.55



                      VOLUMETRIC SWI ZONE BUDGET FOR ENTIRE MODEL
                     AT END OF TIME STEP   64 IN STRESS PERIOD   2
                                      ZONE     2
  -----------------------------------------------------------------------------------

        CUMULATIVE VOLUMES      L**3       RATES FOR THIS TIME STEP      L**3/T
        ------------------                 ------------------------

              IN:                                      IN:
              ---                                      ---
             BOUNDARIES =    84714664.0000            BOUNDARIES =           0.1213
          CONSTANT HEAD =           0.0000         CONSTANT HEAD =           0.0000
            ZONE CHANGE =    25534804.0000           ZONE CHANGE =       3.5622E-03
       ZONE CHG TIP/TOE =    16266543.0000      ZONE CHG TIP/TOE =       2.4470E-02
            ZONE MIXING =      692763.7500           ZONE MIXING =       4.5040E-03

               TOTAL IN =   127208776.0000              TOTAL IN =           0.1538

             OUT:                                     OUT:
             ----                                     ----
             BOUNDARIES =    75391560.0000            BOUNDARIES =       9.1956E-02
          CONSTANT HEAD =           0.0000         CONSTANT HEAD =           0.0000
            ZONE CHANGE =    49556872.0000           ZONE CHANGE =       4.7622E-02
       ZONE CHG TIP/TOE =     5854819.5000      ZONE CHG TIP/TOE =       8.9664E-03
            ZONE MIXING =           0.0000           ZONE MIXING =           0.0000

              TOTAL OUT =   130803248.0000             TOTAL OUT =           0.1485

               IN - OUT =    -3594472.0000              IN - OUT =       5.2824E-03

    PERCENT DISCREPANCY =          -2.79     PERCENT DISCREPANCY =           3.49


 HEAD WILL BE SAVED ON UNIT   37 AT END OF TIME STEP   64, STRESS PERIOD    2

 DRAWDOWN WILL BE SAVED ON UNIT   38 AT END OF TIME STEP   64, STRESS PERIOD    2
1
  VOLUMETRIC BUDGET FOR ENTIRE MODEL AT END OF TIME STEP   64, STRESS PERIOD   2
  ------------------------------------------------------------------------------

     CUMULATIVE VOLUMES      L**3       RATES FOR THIS TIME STEP      L**3/T
     ------------------                 ------------------------

           IN:                                      IN:
           ---                                      ---
             STORAGE =    76525136.0000               STORAGE =       4.4688E-02
       CONSTANT HEAD =           0.0000         CONSTANT HEAD =           0.0000
               WELLS =           0.0000                 WELLS =           0.0000
       RIVER LEAKAGE =   152084448.0000         RIVER LEAKAGE =       4.0000E-02
                  ET =           0.0000                    ET =           0.0000
     HEAD DEP BOUNDS =    94500424.0000       HEAD DEP BOUNDS =           0.1234
            RECHARGE =   610753536.0000              RECHARGE =           0.1743
          SWIADDTOCH =           0.0000            SWIADDTOCH =           0.0000

            TOTAL IN =   933863552.0000              TOTAL IN =           0.3824

          OUT:                                     OUT:
          ----                                     ----
             STORAGE =       63905.4961               STORAGE =       1.6626E-04
       CONSTANT HEAD =           0.0000         CONSTANT HEAD =           0.0000
               WELLS =   389406496.0000                 WELLS =           0.3800
       RIVER LEAKAGE =    21630804.0000         RIVER LEAKAGE =           0.0000
                  ET =   166413648.0000                    ET =           0.0000
     HEAD DEP BOUNDS =   356361216.0000       HEAD DEP BOUNDS =       2.2473E-03
            RECHARGE =           0.0000              RECHARGE =           0.0000
          SWIADDTOCH =           0.0000            SWIADDTOCH =           0.0000

           TOTAL OUT =   933876096.0000             TOTAL OUT =           0.3824

            IN - OUT =      -12544.0000              IN - OUT =      -8.9407E-08

 PERCENT DISCREPANCY =          -0.00     PERCENT DISCREPANCY =          -0.00






         TIME SUMMARY AT END OF TIME STEP   64 IN STRESS PERIOD    2
                    SECONDS     MINUTES      HOURS       DAYS        YEARS
                    -----------------------------------------------------------
   TIME STEP LENGTH 1.57680E+07 2.62800E+05  4380.0      182.50     0.49966    
 STRESS PERIOD TIME 1.00915E+09 1.68192E+07 2.80320E+05  11680.      31.978    
         TOTAL TIME 4.16276E+09 6.93793E+07 1.15632E+06  48180.      131.91    
1
 
 SOLVING FOR HEAD 

 CELL CONVERSIONS FOR ITER.=  2  LAYER=  1  STEP= 65  PERIOD=   2   (ROW,COL)
    DRY( 19, 38)   DRY( 36, 35)   DRY( 40, 30)   DRY( 43, 26)   DRY( 43, 30)   
     6 CALLS TO PCG ROUTINE FOR TIME STEP  65 IN STRESS PERIOD    2
    18 TOTAL ITERATIONS

 MAXIMUM HEAD CHANGE FOR EACH ITERATION (1 INDICATES THE FIRST INNER ITERATION):

    HEAD CHANGE    HEAD CHANGE    HEAD CHANGE    HEAD CHANGE    HEAD CHANGE 
   LAYER,ROW,COL  LAYER,ROW,COL  LAYER,ROW,COL  LAYER,ROW,COL  LAYER,ROW,COL
 ---------------------------------------------------------------------------
  1 -0.3069      0 -0.8652E-01  0 -0.1972E-01  0 -0.5998E-02  0  0.1643E-02
   (  2, 17, 11)  (  2, 16, 12)  (  2, 18, 10)  (  1, 16, 10)  (  2,  7, 12)
  0  0.5810E-03  1 -0.2285      0 -0.2549E-01  0 -0.5232E-02  0 -0.9246E-03
   (  2,  5, 13)  (  2, 43, 30)  (  2, 45, 29)  (  2, 42, 31)  (  2, 48, 22)
  1 -0.5061E-02  0 -0.1920E-02  0 -0.4774E-03  1  0.2773E-02  0  0.1317E-03
   (  2, 50, 39)  (  2, 50, 39)  (  2, 50, 39)  (  2, 50, 39)  (  2, 50, 39)
  1 -0.1128E-02  0 -0.5381E-04  1  0.8109E-03
   (  2, 52, 39)  (  2, 52, 39)  (  2, 52, 39)

 MAXIMUM RESIDUAL FOR EACH ITERATION (1 INDICATES THE FIRST INNER ITERATION):

    RESIDUAL       RESIDUAL       RESIDUAL       RESIDUAL       RESIDUAL    
   LAYER,ROW,COL  LAYER,ROW,COL  LAYER,ROW,COL  LAYER,ROW,COL  LAYER,ROW,COL
 ---------------------------------------------------------------------------
  1  0.5231E-03  0  0.1867E-03  0 -0.4634E-04  0 -0.1778E-04  0  0.6568E-05
   (  2, 16, 12)  (  2, 22,  9)  (  1, 21,  9)  (  1, 18, 10)  (  1, 17, 11)
  0  0.1990E-05  1  0.1138E-03  0  0.3507E-04  0  0.4150E-05  0  0.2158E-05
   (  1, 17, 11)  (  2, 44, 29)  (  2, 42, 31)  (  2, 42, 31)  (  2, 45, 28)
  1 -0.1577E-05  0 -0.7755E-06  0 -0.1778E-06  1 -0.1083E-06  0 -0.4040E-07
   (  2, 41, 30)  (  2, 41, 30)  (  2, 41, 30)  (  2,  6, 11)  (  2, 50, 37)
  1 -0.6504E-07  0 -0.2706E-07  1 -0.4197E-07
   (  2,  6, 11)  (  2, 53, 37)  (  2, 14, 35)



 OUTPUT CONTROL FOR STRESS PERIOD    2   TIME STEP   65
    SAVE HEAD FOR ALL LAYERS
    SAVE DRAWDOWN FOR ALL LAYERS
    SAVE BUDGET
    PRINT BUDGET
 UBDSV1 SAVING "         STORAGE" ON UNIT   9 AT TIME STEP 65, STRESS PERIOD   2
 UBDSV2 SAVING "   CONSTANT HEAD" ON UNIT   9 AT TIME STEP 65, STRESS PERIOD   2
 UBDSV1 SAVING "FLOW RIGHT FACE " ON UNIT   9 AT TIME STEP 65, STRESS PERIOD   2
 UBDSV1 SAVING "FLOW FRONT FACE " ON UNIT   9 AT TIME STEP 65, STRESS PERIOD   2
 UBDSV1 SAVING "FLOW LOWER FACE " ON UNIT   9 AT TIME STEP 65, STRESS PERIOD   2
 UBDSV4 SAVING "           WELLS" ON UNIT   9 AT TIME STEP 65, STRESS PERIOD   2
 UBDSV4 SAVING "   RIVER LEAKAGE" ON UNIT   9 AT TIME STEP 65, STRESS PERIOD   2
 UBDSV3 SAVING "              ET" ON UNIT   9 AT TIME STEP 65, STRESS PERIOD   2
 UBDSV4 SAVING " HEAD DEP BOUNDS" ON UNIT   9 AT TIME STEP 65, STRESS PERIOD   2
 UBDSV3 SAVING "        RECHARGE" ON UNIT   9 AT TIME STEP 65, STRESS PERIOD   2
 SOLVING FOR ZETA FOR LAYER     1 ZONE     2
     2 CALLS TO PCG ROUTINE FOR TIME STEP  65 IN STRESS PERIOD    2
     4 TOTAL ITERATIONS

 MAXIMUM HEAD CHANGE FOR EACH ITERATION (1 INDICATES THE FIRST INNER ITERATION):

    HEAD CHANGE    HEAD CHANGE    HEAD CHANGE    HEAD CHANGE    HEAD CHANGE 
   LAYER,ROW,COL  LAYER,ROW,COL  LAYER,ROW,COL  LAYER,ROW,COL  LAYER,ROW,COL
 ---------------------------------------------------------------------------
  1   23.07      0  0.1004      0  0.6744E-03  1  0.8393E-05
   (  1, 17, 11)  (  1, 15,  7)  (  1, 14,  8)  (  1, 23,  7)

 MAXIMUM RESIDUAL FOR EACH ITERATION (1 INDICATES THE FIRST INNER ITERATION):

    RESIDUAL       RESIDUAL       RESIDUAL       RESIDUAL       RESIDUAL    
   LAYER,ROW,COL  LAYER,ROW,COL  LAYER,ROW,COL  LAYER,ROW,COL  LAYER,ROW,COL
 ---------------------------------------------------------------------------
  1 -0.3190E-04  0 -0.2194E-06  0 -0.2630E-08  1 -0.6960E-10
   (  1, 15,  7)  (  1, 14,  8)  (  1, 23,  7)  (  1, 24,  6)


 SOLVING FOR ZETA FOR LAYER     2 ZONE     2
     2 CALLS TO PCG ROUTINE FOR TIME STEP  65 IN STRESS PERIOD    2
     4 TOTAL ITERATIONS

 MAXIMUM HEAD CHANGE FOR EACH ITERATION (1 INDICATES THE FIRST INNER ITERATION):

    HEAD CHANGE    HEAD CHANGE    HEAD CHANGE    HEAD CHANGE    HEAD CHANGE 
   LAYER,ROW,COL  LAYER,ROW,COL  LAYER,ROW,COL  LAYER,ROW,COL  LAYER,ROW,COL
 ---------------------------------------------------------------------------
  1  -8.059      0  0.5112E-01  0  0.8340E-03  1  0.1022E-04
   (  1, 17, 12)  (  1, 25,  7)  (  1, 24,  8)  (  1, 28,  5)

 MAXIMUM RESIDUAL FOR EACH ITERATION (1 INDICATES THE FIRST INNER ITERATION):

    RESIDUAL       RESIDUAL       RESIDUAL       RESIDUAL       RESIDUAL    
   LAYER,ROW,COL  LAYER,ROW,COL  LAYER,ROW,COL  LAYER,ROW,COL  LAYER,ROW,COL
 ---------------------------------------------------------------------------
  1 -0.1714E-04  0 -0.2923E-06  0 -0.4147E-08  1 -0.9777E-10
   (  1, 25,  7)  (  1, 24,  8)  (  1, 28,  5)  (  1, 29,  4)


 UBUDSV SAVING "      ZETASRF  1" ON UNIT170 AT TIME STEP 65, STRESS PERIOD    2


                      VOLUMETRIC SWI ZONE BUDGET FOR ENTIRE MODEL
                     AT END OF TIME STEP   65 IN STRESS PERIOD   2
                                      ZONE     1
  -----------------------------------------------------------------------------------

        CUMULATIVE VOLUMES      L**3       RATES FOR THIS TIME STEP      L**3/T
        ------------------                 ------------------------

              IN:                                      IN:
              ---                                      ---
             BOUNDARIES =   729806016.0000            BOUNDARIES =           0.1940
          CONSTANT HEAD =           0.0000         CONSTANT HEAD =           0.0000
            ZONE CHANGE =   185987920.0000           ZONE CHANGE =       6.4505E-02
       ZONE CHG TIP/TOE =     9258561.0000      ZONE CHG TIP/TOE =       1.6693E-03
            ZONE MIXING =           0.0000           ZONE MIXING =           0.0000

               TOTAL IN =   925052480.0000              TOTAL IN =           0.2602

             OUT:                                     OUT:
             ----                                     ----
             BOUNDARIES =   822399552.0000            BOUNDARIES =           0.2790
          CONSTANT HEAD =           0.0000         CONSTANT HEAD =           0.0000
            ZONE CHANGE =    29723456.0000           ZONE CHANGE =       9.4204E-03
       ZONE CHG TIP/TOE =     7525813.0000      ZONE CHG TIP/TOE =       5.3704E-04
            ZONE MIXING =      692763.7500           ZONE MIXING =           0.0000

              TOTAL OUT =   860341568.0000             TOTAL OUT =           0.2890

               IN - OUT =    64710912.0000              IN - OUT =      -2.8781E-02

    PERCENT DISCREPANCY =           7.25     PERCENT DISCREPANCY =         -10.48



                      VOLUMETRIC SWI ZONE BUDGET FOR ENTIRE MODEL
                     AT END OF TIME STEP   65 IN STRESS PERIOD   2
                                      ZONE     2
  -----------------------------------------------------------------------------------

        CUMULATIVE VOLUMES      L**3       RATES FOR THIS TIME STEP      L**3/T
        ------------------                 ------------------------

              IN:                                      IN:
              ---                                      ---
             BOUNDARIES =    86636832.0000            BOUNDARIES =           0.1219
          CONSTANT HEAD =           0.0000         CONSTANT HEAD =           0.0000
            ZONE CHANGE =    25663366.0000           ZONE CHANGE =       8.1533E-03
       ZONE CHG TIP/TOE =    16626763.0000      ZONE CHG TIP/TOE =       2.2845E-02
            ZONE MIXING =      692763.7500           ZONE MIXING =           0.0000

               TOTAL IN =   129619728.0000              TOTAL IN =           0.1529

             OUT:                                     OUT:
             ----                                     ----
             BOUNDARIES =    76692840.0000            BOUNDARIES =       8.2527E-02
          CONSTANT HEAD =           0.0000         CONSTANT HEAD =           0.0000
            ZONE CHANGE =    50331932.0000           ZONE CHANGE =       4.9154E-02
       ZONE CHG TIP/TOE =     5855197.0000      ZONE CHG TIP/TOE =       2.3956E-05
            ZONE MIXING =           0.0000           ZONE MIXING =           0.0000

              TOTAL OUT =   132879968.0000             TOTAL OUT =           0.1317

               IN - OUT =    -3260240.0000              IN - OUT =       2.1197E-02

    PERCENT DISCREPANCY =          -2.48     PERCENT DISCREPANCY =          14.90


 HEAD WILL BE SAVED ON UNIT   37 AT END OF TIME STEP   65, STRESS PERIOD    2

 DRAWDOWN WILL BE SAVED ON UNIT   38 AT END OF TIME STEP   65, STRESS PERIOD    2
1
  VOLUMETRIC BUDGET FOR ENTIRE MODEL AT END OF TIME STEP   65, STRESS PERIOD   2
  ------------------------------------------------------------------------------

     CUMULATIVE VOLUMES      L**3       RATES FOR THIS TIME STEP      L**3/T
     ------------------                 ------------------------

           IN:                                      IN:
           ---                                      ---
             STORAGE =    77245056.0000               STORAGE =       4.5657E-02
       CONSTANT HEAD =           0.0000         CONSTANT HEAD =           0.0000
               WELLS =           0.0000                 WELLS =           0.0000
       RIVER LEAKAGE =   152699408.0000         RIVER LEAKAGE =       3.9000E-02
                  ET =           0.0000                    ET =           0.0000
     HEAD DEP BOUNDS =    96458376.0000       HEAD DEP BOUNDS =           0.1242
            RECHARGE =   613486528.0000              RECHARGE =           0.1733
          SWIADDTOCH =           0.0000            SWIADDTOCH =           0.0000

            TOTAL IN =   939889408.0000              TOTAL IN =           0.3822

          OUT:                                     OUT:
          ----                                     ----
             STORAGE =       64473.4688               STORAGE =       3.6021E-05
       CONSTANT HEAD =           0.0000         CONSTANT HEAD =           0.0000
               WELLS =   395398336.0000                 WELLS =           0.3800
       RIVER LEAKAGE =    21630804.0000         RIVER LEAKAGE =           0.0000
                  ET =   166413648.0000                    ET =           0.0000
     HEAD DEP BOUNDS =   356394624.0000       HEAD DEP BOUNDS =       2.1195E-03
            RECHARGE =           0.0000              RECHARGE =           0.0000
          SWIADDTOCH =           0.0000            SWIADDTOCH =           0.0000

           TOTAL OUT =   939901888.0000             TOTAL OUT =           0.3822

            IN - OUT =      -12480.0000              IN - OUT =      -2.9802E-08

 PERCENT DISCREPANCY =          -0.00     PERCENT DISCREPANCY =          -0.00






         TIME SUMMARY AT END OF TIME STEP   65 IN STRESS PERIOD    2
                    SECONDS     MINUTES      HOURS       DAYS        YEARS
                    -----------------------------------------------------------
   TIME STEP LENGTH 1.57680E+07 2.62800E+05  4380.0      182.50     0.49966    
 STRESS PERIOD TIME 1.02492E+09 1.70820E+07 2.84700E+05  11862.      32.478    
         TOTAL TIME 4.17852E+09 6.96421E+07 1.16070E+06  48363.      132.41    
1
 
 SOLVING FOR HEAD 

 CELL CONVERSIONS FOR ITER.=  5  LAYER=  1  STEP= 66  PERIOD=   2   (ROW,COL)
    DRY( 43, 22)   
     6 CALLS TO PCG ROUTINE FOR TIME STEP  66 IN STRESS PERIOD    2
    18 TOTAL ITERATIONS

 MAXIMUM HEAD CHANGE FOR EACH ITERATION (1 INDICATES THE FIRST INNER ITERATION):

    HEAD CHANGE    HEAD CHANGE    HEAD CHANGE    HEAD CHANGE    HEAD CHANGE 
   LAYER,ROW,COL  LAYER,ROW,COL  LAYER,ROW,COL  LAYER,ROW,COL  LAYER,ROW,COL
 ---------------------------------------------------------------------------
  1 -0.3091      0  0.9531E-01  0  0.1697E-01  0 -0.4344E-02  0  0.1586E-02
   (  2, 17, 12)  (  2, 16, 12)  (  2, 18, 10)  (  2,  5, 10)  (  2,  5, 11)
  0 -0.3742E-03  1  0.2487E-01  0  0.3213E-02  0  0.4826E-03  1 -0.7738E-02
   (  2,  6, 12)  (  2, 56, 32)  (  2, 17, 11)  (  2, 55, 31)  (  2, 56, 32)
  0 -0.2497E-03  1  0.3524E-02  0  0.1108E-03  1 -0.4470E-01  0 -0.8935E-02
   (  2, 55, 31)  (  2, 50, 39)  (  2,  6, 12)  (  2, 43, 22)  (  2, 44, 20)
  0 -0.1332E-02  0 -0.2385E-03  1  0.6051E-03
   (  2, 42, 23)  (  2, 40, 24)  (  2, 52, 39)

 MAXIMUM RESIDUAL FOR EACH ITERATION (1 INDICATES THE FIRST INNER ITERATION):

    RESIDUAL       RESIDUAL       RESIDUAL       RESIDUAL       RESIDUAL    
   LAYER,ROW,COL  LAYER,ROW,COL  LAYER,ROW,COL  LAYER,ROW,COL  LAYER,ROW,COL
 ---------------------------------------------------------------------------
  1  0.5849E-03  0  0.1770E-03  0 -0.4395E-04  0 -0.1727E-04  0 -0.4912E-05
   (  2, 18, 11)  (  2, 17, 11)  (  1, 17, 11)  (  1, 17, 11)  (  1, 17, 11)
  0  0.1783E-05  1  0.7303E-04  0  0.8822E-05  0  0.1764E-05  1  0.7504E-05
   (  1, 17, 12)  (  1, 43, 22)  (  1, 43, 22)  (  1, 43, 22)  (  1, 43, 22)
  0  0.1655E-05  1 -0.1040E-04  0 -0.2202E-05  1  0.3043E-04  0  0.9494E-05
   (  1, 43, 22)  (  2, 43, 22)  (  2, 43, 22)  (  2, 44, 21)  (  2, 42, 23)
  0  0.2222E-05  0  0.5350E-06  1  0.4047E-06
   (  2, 44, 21)  (  2, 44, 21)  (  2, 44, 21)



 OUTPUT CONTROL FOR STRESS PERIOD    2   TIME STEP   66
    SAVE HEAD FOR ALL LAYERS
    SAVE DRAWDOWN FOR ALL LAYERS
    SAVE BUDGET
    PRINT BUDGET
 UBDSV1 SAVING "         STORAGE" ON UNIT   9 AT TIME STEP 66, STRESS PERIOD   2
 UBDSV2 SAVING "   CONSTANT HEAD" ON UNIT   9 AT TIME STEP 66, STRESS PERIOD   2
 UBDSV1 SAVING "FLOW RIGHT FACE " ON UNIT   9 AT TIME STEP 66, STRESS PERIOD   2
 UBDSV1 SAVING "FLOW FRONT FACE " ON UNIT   9 AT TIME STEP 66, STRESS PERIOD   2
 UBDSV1 SAVING "FLOW LOWER FACE " ON UNIT   9 AT TIME STEP 66, STRESS PERIOD   2
 UBDSV4 SAVING "           WELLS" ON UNIT   9 AT TIME STEP 66, STRESS PERIOD   2
 UBDSV4 SAVING "   RIVER LEAKAGE" ON UNIT   9 AT TIME STEP 66, STRESS PERIOD   2
 UBDSV3 SAVING "              ET" ON UNIT   9 AT TIME STEP 66, STRESS PERIOD   2
 UBDSV4 SAVING " HEAD DEP BOUNDS" ON UNIT   9 AT TIME STEP 66, STRESS PERIOD   2
 UBDSV3 SAVING "        RECHARGE" ON UNIT   9 AT TIME STEP 66, STRESS PERIOD   2
 SOLVING FOR ZETA FOR LAYER     1 ZONE     2
     2 CALLS TO PCG ROUTINE FOR TIME STEP  66 IN STRESS PERIOD    2
     4 TOTAL ITERATIONS

 MAXIMUM HEAD CHANGE FOR EACH ITERATION (1 INDICATES THE FIRST INNER ITERATION):

    HEAD CHANGE    HEAD CHANGE    HEAD CHANGE    HEAD CHANGE    HEAD CHANGE 
   LAYER,ROW,COL  LAYER,ROW,COL  LAYER,ROW,COL  LAYER,ROW,COL  LAYER,ROW,COL
 ---------------------------------------------------------------------------
  1  -9.581      0  0.2950E-01  0  0.3365E-03  1  0.2746E-05
   (  1, 17, 12)  (  1, 25,  5)  (  1, 24,  6)  (  1, 25,  5)

 MAXIMUM RESIDUAL FOR EACH ITERATION (1 INDICATES THE FIRST INNER ITERATION):

    RESIDUAL       RESIDUAL       RESIDUAL       RESIDUAL       RESIDUAL    
   LAYER,ROW,COL  LAYER,ROW,COL  LAYER,ROW,COL  LAYER,ROW,COL  LAYER,ROW,COL
 ---------------------------------------------------------------------------
  1 -0.1045E-04  0 -0.1077E-06  0 -0.9743E-09  1 -0.1162E-10
   (  1, 25,  5)  (  1, 24,  6)  (  1, 25,  5)  (  1, 24,  6)


 SOLVING FOR ZETA FOR LAYER     2 ZONE     2
     2 CALLS TO PCG ROUTINE FOR TIME STEP  66 IN STRESS PERIOD    2
     4 TOTAL ITERATIONS

 MAXIMUM HEAD CHANGE FOR EACH ITERATION (1 INDICATES THE FIRST INNER ITERATION):

    HEAD CHANGE    HEAD CHANGE    HEAD CHANGE    HEAD CHANGE    HEAD CHANGE 
   LAYER,ROW,COL  LAYER,ROW,COL  LAYER,ROW,COL  LAYER,ROW,COL  LAYER,ROW,COL
 ---------------------------------------------------------------------------
  1   2.958      0  0.4849E-01  0  0.6902E-03  1  0.9490E-05
   (  1,  9, 10)  (  1, 25,  7)  (  1, 24,  8)  (  1, 28,  5)

 MAXIMUM RESIDUAL FOR EACH ITERATION (1 INDICATES THE FIRST INNER ITERATION):

    RESIDUAL       RESIDUAL       RESIDUAL       RESIDUAL       RESIDUAL    
   LAYER,ROW,COL  LAYER,ROW,COL  LAYER,ROW,COL  LAYER,ROW,COL  LAYER,ROW,COL
 ---------------------------------------------------------------------------
  1 -0.1641E-04  0 -0.2517E-06  0 -0.3868E-08  1 -0.9385E-10
   (  1, 25,  7)  (  1, 24,  8)  (  1, 28,  5)  (  1, 29,  4)


 UBUDSV SAVING "      ZETASRF  1" ON UNIT170 AT TIME STEP 66, STRESS PERIOD    2


                      VOLUMETRIC SWI ZONE BUDGET FOR ENTIRE MODEL
                     AT END OF TIME STEP   66 IN STRESS PERIOD   2
                                      ZONE     1
  -----------------------------------------------------------------------------------

        CUMULATIVE VOLUMES      L**3       RATES FOR THIS TIME STEP      L**3/T
        ------------------                 ------------------------

              IN:                                      IN:
              ---                                      ---
             BOUNDARIES =   732864128.0000            BOUNDARIES =           0.1939
          CONSTANT HEAD =           0.0000         CONSTANT HEAD =           0.0000
            ZONE CHANGE =   186910608.0000           ZONE CHANGE =       5.8517E-02
       ZONE CHG TIP/TOE =     9455972.0000      ZONE CHG TIP/TOE =       1.2520E-02
            ZONE MIXING =           0.0000           ZONE MIXING =           0.0000

               TOTAL IN =   929230720.0000              TOTAL IN =           0.2650

             OUT:                                     OUT:
             ----                                     ----
             BOUNDARIES =   826036160.0000            BOUNDARIES =           0.2306
          CONSTANT HEAD =           0.0000         CONSTANT HEAD =           0.0000
            ZONE CHANGE =    29934108.0000           ZONE CHANGE =       1.3360E-02
       ZONE CHG TIP/TOE =     7660860.0000      ZONE CHG TIP/TOE =       8.5646E-03
            ZONE MIXING =      773129.1875           ZONE MIXING =       5.0967E-03

              TOTAL OUT =   864404224.0000             TOTAL OUT =           0.2577

               IN - OUT =    64826496.0000              IN - OUT =       7.3249E-03

    PERCENT DISCREPANCY =           7.23     PERCENT DISCREPANCY =           2.80



                      VOLUMETRIC SWI ZONE BUDGET FOR ENTIRE MODEL
                     AT END OF TIME STEP   66 IN STRESS PERIOD   2
                                      ZONE     2
  -----------------------------------------------------------------------------------

        CUMULATIVE VOLUMES      L**3       RATES FOR THIS TIME STEP      L**3/T
        ------------------                 ------------------------

              IN:                                      IN:
              ---                                      ---
             BOUNDARIES =    88564488.0000            BOUNDARIES =           0.1223
          CONSTANT HEAD =           0.0000         CONSTANT HEAD =           0.0000
            ZONE CHANGE =    25793166.0000           ZONE CHANGE =       8.2319E-03
       ZONE CHG TIP/TOE =    16764236.0000      ZONE CHG TIP/TOE =       8.7185E-03
            ZONE MIXING =      773129.1875           ZONE MIXING =       5.0967E-03

               TOTAL IN =   131895024.0000              TOTAL IN =           0.1443

             OUT:                                     OUT:
             ----                                     ----
             BOUNDARIES =    78755520.0000            BOUNDARIES =           0.1308
          CONSTANT HEAD =           0.0000         CONSTANT HEAD =           0.0000
            ZONE CHANGE =    50666668.0000           ZONE CHANGE =       2.1229E-02
       ZONE CHG TIP/TOE =     5967197.0000      ZONE CHG TIP/TOE =       7.1030E-03
            ZONE MIXING =           0.0000           ZONE MIXING =           0.0000

              TOTAL OUT =   135389376.0000             TOTAL OUT =           0.1591

               IN - OUT =    -3494352.0000              IN - OUT =      -1.4848E-02

    PERCENT DISCREPANCY =          -2.61     PERCENT DISCREPANCY =          -9.79


 HEAD WILL BE SAVED ON UNIT   37 AT END OF TIME STEP   66, STRESS PERIOD    2

 DRAWDOWN WILL BE SAVED ON UNIT   38 AT END OF TIME STEP   66, STRESS PERIOD    2
1
  VOLUMETRIC BUDGET FOR ENTIRE MODEL AT END OF TIME STEP   66, STRESS PERIOD   2
  ------------------------------------------------------------------------------

     CUMULATIVE VOLUMES      L**3       RATES FOR THIS TIME STEP      L**3/T
     ------------------                 ------------------------

           IN:                                      IN:
           ---                                      ---
             STORAGE =    77959600.0000               STORAGE =       4.5316E-02
       CONSTANT HEAD =           0.0000         CONSTANT HEAD =           0.0000
               WELLS =           0.0000                 WELLS =           0.0000
       RIVER LEAKAGE =   153314368.0000         RIVER LEAKAGE =       3.9000E-02
                  ET =           0.0000                    ET =           0.0000
     HEAD DEP BOUNDS =    98423176.0000       HEAD DEP BOUNDS =           0.1246
            RECHARGE =   616216512.0000              RECHARGE =           0.1731
          SWIADDTOCH =           0.0000            SWIADDTOCH =           0.0000

            TOTAL IN =   945913664.0000              TOTAL IN =           0.3821

          OUT:                                     OUT:
          ----                                     ----
             STORAGE =       65471.0859               STORAGE =       6.3268E-05
       CONSTANT HEAD =           0.0000         CONSTANT HEAD =           0.0000
               WELLS =   401390176.0000                 WELLS =           0.3800
       RIVER LEAKAGE =    21630804.0000         RIVER LEAKAGE =           0.0000
                  ET =   166413648.0000                    ET =           0.0000
     HEAD DEP BOUNDS =   356426080.0000       HEAD DEP BOUNDS =       1.9959E-03
            RECHARGE =           0.0000              RECHARGE =           0.0000
          SWIADDTOCH =           0.0000            SWIADDTOCH =           0.0000

           TOTAL OUT =   945926144.0000             TOTAL OUT =           0.3821

            IN - OUT =      -12480.0000              IN - OUT =      -5.0664E-07

 PERCENT DISCREPANCY =          -0.00     PERCENT DISCREPANCY =          -0.00






         TIME SUMMARY AT END OF TIME STEP   66 IN STRESS PERIOD    2
                    SECONDS     MINUTES      HOURS       DAYS        YEARS
                    -----------------------------------------------------------
   TIME STEP LENGTH 1.57680E+07 2.62800E+05  4380.0      182.50     0.49966    
 STRESS PERIOD TIME 1.04069E+09 1.73448E+07 2.89080E+05  12045.      32.977    
         TOTAL TIME 4.19429E+09 6.99049E+07 1.16508E+06  48545.      132.91    
1
 
 SOLVING FOR HEAD 

 CELL CONVERSIONS FOR ITER.=  2  LAYER=  1  STEP= 67  PERIOD=   2   (ROW,COL)
    DRY( 42, 30)   
     6 CALLS TO PCG ROUTINE FOR TIME STEP  67 IN STRESS PERIOD    2
    17 TOTAL ITERATIONS

 MAXIMUM HEAD CHANGE FOR EACH ITERATION (1 INDICATES THE FIRST INNER ITERATION):

    HEAD CHANGE    HEAD CHANGE    HEAD CHANGE    HEAD CHANGE    HEAD CHANGE 
   LAYER,ROW,COL  LAYER,ROW,COL  LAYER,ROW,COL  LAYER,ROW,COL  LAYER,ROW,COL
 ---------------------------------------------------------------------------
  1 -0.1619      0 -0.6703E-01  0  0.1823E-01  0  0.4850E-02  0  0.1702E-02
   (  2, 44, 31)  (  1,  8, 10)  (  2,  6, 10)  (  2,  5, 12)  (  2,  6,  8)
  0  0.4330E-03  1 -0.3547E-01  0  0.6120E-02  0  0.1517E-02  0  0.5065E-03
   (  2,  6, 14)  (  2, 42, 30)  (  2, 56, 32)  (  2, 56, 32)  (  2, 56, 32)
  1 -0.8193E-02  0 -0.4832E-03  1  0.2805E-02  0  0.2382E-03  1 -0.1335E-02
   (  2, 56, 32)  (  2, 56, 32)  (  2, 50, 39)  (  2, 50, 39)  (  2, 50, 39)
  0 -0.7885E-04  1  0.6262E-03
   (  2, 50, 39)  (  2, 50, 39)

 MAXIMUM RESIDUAL FOR EACH ITERATION (1 INDICATES THE FIRST INNER ITERATION):

    RESIDUAL       RESIDUAL       RESIDUAL       RESIDUAL       RESIDUAL    
   LAYER,ROW,COL  LAYER,ROW,COL  LAYER,ROW,COL  LAYER,ROW,COL  LAYER,ROW,COL
 ---------------------------------------------------------------------------
  1 -0.3418E-03  0 -0.1272E-03  0  0.4834E-04  0  0.1456E-04  0 -0.3817E-05
   (  2, 16, 11)  (  2, 16, 11)  (  1, 13,  8)  (  1, 13,  8)  (  2, 13,  8)
  0 -0.1317E-05  1  0.1988E-04  0  0.7848E-05  0  0.2195E-05  0  0.4511E-06
   (  2, 13,  8)  (  2, 42, 30)  (  2, 41, 31)  (  2, 41, 31)  (  2, 44, 28)
  1 -0.4389E-06  0  0.1425E-06  1 -0.3070E-06  0  0.6596E-07  1 -0.7990E-07
   (  2, 17, 11)  (  2, 55, 31)  (  2,  5, 11)  (  2, 54, 33)  (  2,  5, 11)
  0  0.3240E-07  1 -0.5043E-07
   (  2, 50, 37)  (  2,  5, 11)



 OUTPUT CONTROL FOR STRESS PERIOD    2   TIME STEP   67
    SAVE HEAD FOR ALL LAYERS
    SAVE DRAWDOWN FOR ALL LAYERS
    SAVE BUDGET
    PRINT BUDGET
 UBDSV1 SAVING "         STORAGE" ON UNIT   9 AT TIME STEP 67, STRESS PERIOD   2
 UBDSV2 SAVING "   CONSTANT HEAD" ON UNIT   9 AT TIME STEP 67, STRESS PERIOD   2
 UBDSV1 SAVING "FLOW RIGHT FACE " ON UNIT   9 AT TIME STEP 67, STRESS PERIOD   2
 UBDSV1 SAVING "FLOW FRONT FACE " ON UNIT   9 AT TIME STEP 67, STRESS PERIOD   2
 UBDSV1 SAVING "FLOW LOWER FACE " ON UNIT   9 AT TIME STEP 67, STRESS PERIOD   2
 UBDSV4 SAVING "           WELLS" ON UNIT   9 AT TIME STEP 67, STRESS PERIOD   2
 UBDSV4 SAVING "   RIVER LEAKAGE" ON UNIT   9 AT TIME STEP 67, STRESS PERIOD   2
 UBDSV3 SAVING "              ET" ON UNIT   9 AT TIME STEP 67, STRESS PERIOD   2
 UBDSV4 SAVING " HEAD DEP BOUNDS" ON UNIT   9 AT TIME STEP 67, STRESS PERIOD   2
 UBDSV3 SAVING "        RECHARGE" ON UNIT   9 AT TIME STEP 67, STRESS PERIOD   2
 SOLVING FOR ZETA FOR LAYER     1 ZONE     2
     2 CALLS TO PCG ROUTINE FOR TIME STEP  67 IN STRESS PERIOD    2
     4 TOTAL ITERATIONS

 MAXIMUM HEAD CHANGE FOR EACH ITERATION (1 INDICATES THE FIRST INNER ITERATION):

    HEAD CHANGE    HEAD CHANGE    HEAD CHANGE    HEAD CHANGE    HEAD CHANGE 
   LAYER,ROW,COL  LAYER,ROW,COL  LAYER,ROW,COL  LAYER,ROW,COL  LAYER,ROW,COL
 ---------------------------------------------------------------------------
  1   18.94      0  0.3731E-01  0  0.4052E-03  1 -0.3615E-05
   (  1, 17, 10)  (  1, 19, 11)  (  1, 24,  6)  (  1, 19, 11)

 MAXIMUM RESIDUAL FOR EACH ITERATION (1 INDICATES THE FIRST INNER ITERATION):

    RESIDUAL       RESIDUAL       RESIDUAL       RESIDUAL       RESIDUAL    
   LAYER,ROW,COL  LAYER,ROW,COL  LAYER,ROW,COL  LAYER,ROW,COL  LAYER,ROW,COL
 ---------------------------------------------------------------------------
  1 -0.1155E-04  0 -0.1327E-06  0 -0.1265E-08  1 -0.1511E-10
   (  1, 25,  5)  (  1, 24,  6)  (  1, 25,  5)  (  1, 24,  6)


 SOLVING FOR ZETA FOR LAYER     2 ZONE     2
     2 CALLS TO PCG ROUTINE FOR TIME STEP  67 IN STRESS PERIOD    2
     4 TOTAL ITERATIONS

 MAXIMUM HEAD CHANGE FOR EACH ITERATION (1 INDICATES THE FIRST INNER ITERATION):

    HEAD CHANGE    HEAD CHANGE    HEAD CHANGE    HEAD CHANGE    HEAD CHANGE 
   LAYER,ROW,COL  LAYER,ROW,COL  LAYER,ROW,COL  LAYER,ROW,COL  LAYER,ROW,COL
 ---------------------------------------------------------------------------
  1   4.274      0  0.4357E-01  0  0.6799E-03  1  0.8894E-05
   (  1, 17, 11)  (  1, 12,  9)  (  1, 24,  8)  (  1, 28,  5)

 MAXIMUM RESIDUAL FOR EACH ITERATION (1 INDICATES THE FIRST INNER ITERATION):

    RESIDUAL       RESIDUAL       RESIDUAL       RESIDUAL       RESIDUAL    
   LAYER,ROW,COL  LAYER,ROW,COL  LAYER,ROW,COL  LAYER,ROW,COL  LAYER,ROW,COL
 ---------------------------------------------------------------------------
  1 -0.1434E-04  0 -0.2437E-06  0 -0.3638E-08  1 -0.9005E-10
   (  1, 12,  9)  (  1, 24,  8)  (  1, 28,  5)  (  1, 29,  4)


 UBUDSV SAVING "      ZETASRF  1" ON UNIT170 AT TIME STEP 67, STRESS PERIOD    2


                      VOLUMETRIC SWI ZONE BUDGET FOR ENTIRE MODEL
                     AT END OF TIME STEP   67 IN STRESS PERIOD   2
                                      ZONE     1
  -----------------------------------------------------------------------------------

        CUMULATIVE VOLUMES      L**3       RATES FOR THIS TIME STEP      L**3/T
        ------------------                 ------------------------

              IN:                                      IN:
              ---                                      ---
             BOUNDARIES =   735920704.0000            BOUNDARIES =           0.1938
          CONSTANT HEAD =           0.0000         CONSTANT HEAD =           0.0000
            ZONE CHANGE =   187908528.0000           ZONE CHANGE =       6.3288E-02
       ZONE CHG TIP/TOE =     9529691.0000      ZONE CHG TIP/TOE =       4.6752E-03
            ZONE MIXING =           0.0000           ZONE MIXING =           0.0000

               TOTAL IN =   933358912.0000              TOTAL IN =           0.2618

             OUT:                                     OUT:
             ----                                     ----
             BOUNDARIES =   830125824.0000            BOUNDARIES =           0.2594
          CONSTANT HEAD =           0.0000         CONSTANT HEAD =           0.0000
            ZONE CHANGE =    30012488.0000           ZONE CHANGE =       4.9708E-03
       ZONE CHG TIP/TOE =     7724860.0000      ZONE CHG TIP/TOE =       4.0589E-03
            ZONE MIXING =      840567.6875           ZONE MIXING =       4.2769E-03

              TOTAL OUT =   868703744.0000             TOTAL OUT =           0.2727

               IN - OUT =    64655168.0000              IN - OUT =      -1.0864E-02

    PERCENT DISCREPANCY =           7.18     PERCENT DISCREPANCY =          -4.07



                      VOLUMETRIC SWI ZONE BUDGET FOR ENTIRE MODEL
                     AT END OF TIME STEP   67 IN STRESS PERIOD   2
                                      ZONE     2
  -----------------------------------------------------------------------------------

        CUMULATIVE VOLUMES      L**3       RATES FOR THIS TIME STEP      L**3/T
        ------------------                 ------------------------

              IN:                                      IN:
              ---                                      ---
             BOUNDARIES =    90501152.0000            BOUNDARIES =           0.1228
          CONSTANT HEAD =           0.0000         CONSTANT HEAD =           0.0000
            ZONE CHANGE =    25875690.0000           ZONE CHANGE =       5.2337E-03
       ZONE CHG TIP/TOE =    16997258.0000      ZONE CHG TIP/TOE =       1.4778E-02
            ZONE MIXING =      840567.6875           ZONE MIXING =       4.2769E-03

               TOTAL IN =   134214672.0000              TOTAL IN =           0.1471

             OUT:                                     OUT:
             ----                                     ----
             BOUNDARIES =    80363160.0000            BOUNDARIES =           0.1020
          CONSTANT HEAD =           0.0000         CONSTANT HEAD =           0.0000
            ZONE CHANGE =    51251144.0000           ZONE CHANGE =       3.7067E-02
       ZONE CHG TIP/TOE =     6040463.0000      ZONE CHG TIP/TOE =       4.6465E-03
            ZONE MIXING =           0.0000           ZONE MIXING =           0.0000

              TOTAL OUT =   137654768.0000             TOTAL OUT =           0.1437

               IN - OUT =    -3440096.0000              IN - OUT =       3.4414E-03

    PERCENT DISCREPANCY =          -2.53     PERCENT DISCREPANCY =           2.37


 HEAD WILL BE SAVED ON UNIT   37 AT END OF TIME STEP   67, STRESS PERIOD    2

 DRAWDOWN WILL BE SAVED ON UNIT   38 AT END OF TIME STEP   67, STRESS PERIOD    2
1
  VOLUMETRIC BUDGET FOR ENTIRE MODEL AT END OF TIME STEP   67, STRESS PERIOD   2
  ------------------------------------------------------------------------------

     CUMULATIVE VOLUMES      L**3       RATES FOR THIS TIME STEP      L**3/T
     ------------------                 ------------------------

           IN:                                      IN:
           ---                                      ---
             STORAGE =    78665848.0000               STORAGE =       4.4790E-02
       CONSTANT HEAD =           0.0000         CONSTANT HEAD =           0.0000
               WELLS =           0.0000                 WELLS =           0.0000
       RIVER LEAKAGE =   153929328.0000         RIVER LEAKAGE =       3.9000E-02
                  ET =           0.0000                    ET =           0.0000
     HEAD DEP BOUNDS =   100398448.0000       HEAD DEP BOUNDS =           0.1253
            RECHARGE =   618943488.0000              RECHARGE =           0.1729
          SWIADDTOCH =           0.0000            SWIADDTOCH =           0.0000

            TOTAL IN =   951937088.0000              TOTAL IN =           0.3820

          OUT:                                     OUT:
          ----                                     ----
             STORAGE =       67616.3984               STORAGE =       1.3605E-04
       CONSTANT HEAD =           0.0000         CONSTANT HEAD =           0.0000
               WELLS =   407382016.0000                 WELLS =           0.3800
       RIVER LEAKAGE =    21630804.0000         RIVER LEAKAGE =           0.0000
                  ET =   166413648.0000                    ET =           0.0000
     HEAD DEP BOUNDS =   356455552.0000       HEAD DEP BOUNDS =       1.8698E-03
            RECHARGE =           0.0000              RECHARGE =           0.0000
          SWIADDTOCH =           0.0000            SWIADDTOCH =           0.0000

           TOTAL OUT =   951949632.0000             TOTAL OUT =           0.3820

            IN - OUT =      -12544.0000              IN - OUT =       2.9802E-08

 PERCENT DISCREPANCY =          -0.00     PERCENT DISCREPANCY =           0.00






         TIME SUMMARY AT END OF TIME STEP   67 IN STRESS PERIOD    2
                    SECONDS     MINUTES      HOURS       DAYS        YEARS
                    -----------------------------------------------------------
   TIME STEP LENGTH 1.57680E+07 2.62800E+05  4380.0      182.50     0.49966    
 STRESS PERIOD TIME 1.05646E+09 1.76076E+07 2.93460E+05  12228.      33.477    
         TOTAL TIME 4.21006E+09 7.01677E+07 1.16946E+06  48728.      133.41    
1
 
 SOLVING FOR HEAD 

 CELL CONVERSIONS FOR ITER.=  2  LAYER=  1  STEP= 68  PERIOD=   2   (ROW,COL)
    DRY(  8, 24)   DRY( 33, 33)   
     6 CALLS TO PCG ROUTINE FOR TIME STEP  68 IN STRESS PERIOD    2
    17 TOTAL ITERATIONS

 MAXIMUM HEAD CHANGE FOR EACH ITERATION (1 INDICATES THE FIRST INNER ITERATION):

    HEAD CHANGE    HEAD CHANGE    HEAD CHANGE    HEAD CHANGE    HEAD CHANGE 
   LAYER,ROW,COL  LAYER,ROW,COL  LAYER,ROW,COL  LAYER,ROW,COL  LAYER,ROW,COL
 ---------------------------------------------------------------------------
  1 -0.2804      0 -0.5579E-01  0 -0.1351E-01  0 -0.5132E-02  0  0.1541E-02
   (  1, 20, 10)  (  2, 13,  9)  (  2,  8,  9)  (  2,  5, 11)  (  2,  5, 11)
  0  0.4031E-03  1 -0.3643E-01  0  0.5986E-02  0  0.1736E-02  0  0.5140E-03
   (  2,  5, 15)  (  2, 33, 33)  (  2, 56, 32)  (  2, 56, 32)  (  2, 56, 32)
  1 -0.8914E-02  0 -0.6945E-03  1  0.3365E-02  0  0.2416E-03  1 -0.1447E-02
   (  2, 56, 32)  (  2, 56, 32)  (  2, 56, 32)  (  2, 56, 32)  (  2, 50, 39)
  0 -0.7954E-04  1  0.7636E-03
   (  2, 50, 39)  (  2, 50, 39)

 MAXIMUM RESIDUAL FOR EACH ITERATION (1 INDICATES THE FIRST INNER ITERATION):

    RESIDUAL       RESIDUAL       RESIDUAL       RESIDUAL       RESIDUAL    
   LAYER,ROW,COL  LAYER,ROW,COL  LAYER,ROW,COL  LAYER,ROW,COL  LAYER,ROW,COL
 ---------------------------------------------------------------------------
  1 -0.4720E-03  0  0.1599E-03  0 -0.4254E-04  0  0.1557E-04  0  0.4099E-05
   (  2, 20, 10)  (  2, 20,  9)  (  1, 15, 10)  (  2, 15, 10)  (  2, 15, 10)
  0  0.1539E-05  1  0.2896E-04  0  0.9768E-05  0 -0.2292E-05  0 -0.6528E-06
   (  2, 20, 10)  (  2,  8, 24)  (  2, 32, 34)  (  2, 10, 23)  (  2, 10, 23)
  1 -0.5446E-06  0 -0.1654E-06  1  0.1522E-06  0  0.7240E-07  1  0.6341E-07
   (  2, 18, 11)  (  2, 31, 33)  (  2,  5, 18)  (  2, 54, 33)  (  2, 50, 37)
  0  0.3069E-07  1 -0.3513E-07
   (  2, 50, 37)  (  2, 50, 37)



 OUTPUT CONTROL FOR STRESS PERIOD    2   TIME STEP   68
    SAVE HEAD FOR ALL LAYERS
    SAVE DRAWDOWN FOR ALL LAYERS
    SAVE BUDGET
    PRINT BUDGET
 UBDSV1 SAVING "         STORAGE" ON UNIT   9 AT TIME STEP 68, STRESS PERIOD   2
 UBDSV2 SAVING "   CONSTANT HEAD" ON UNIT   9 AT TIME STEP 68, STRESS PERIOD   2
 UBDSV1 SAVING "FLOW RIGHT FACE " ON UNIT   9 AT TIME STEP 68, STRESS PERIOD   2
 UBDSV1 SAVING "FLOW FRONT FACE " ON UNIT   9 AT TIME STEP 68, STRESS PERIOD   2
 UBDSV1 SAVING "FLOW LOWER FACE " ON UNIT   9 AT TIME STEP 68, STRESS PERIOD   2
 UBDSV4 SAVING "           WELLS" ON UNIT   9 AT TIME STEP 68, STRESS PERIOD   2
 UBDSV4 SAVING "   RIVER LEAKAGE" ON UNIT   9 AT TIME STEP 68, STRESS PERIOD   2
 UBDSV3 SAVING "              ET" ON UNIT   9 AT TIME STEP 68, STRESS PERIOD   2
 UBDSV4 SAVING " HEAD DEP BOUNDS" ON UNIT   9 AT TIME STEP 68, STRESS PERIOD   2
 UBDSV3 SAVING "        RECHARGE" ON UNIT   9 AT TIME STEP 68, STRESS PERIOD   2
 SOLVING FOR ZETA FOR LAYER     1 ZONE     2
     2 CALLS TO PCG ROUTINE FOR TIME STEP  68 IN STRESS PERIOD    2
     4 TOTAL ITERATIONS

 MAXIMUM HEAD CHANGE FOR EACH ITERATION (1 INDICATES THE FIRST INNER ITERATION):

    HEAD CHANGE    HEAD CHANGE    HEAD CHANGE    HEAD CHANGE    HEAD CHANGE 
   LAYER,ROW,COL  LAYER,ROW,COL  LAYER,ROW,COL  LAYER,ROW,COL  LAYER,ROW,COL
 ---------------------------------------------------------------------------
  1   35.18      0  0.1603E-01  0 -0.2372E-03  1 -0.1029E-05
   (  1, 18, 10)  (  1, 10,  6)  (  1, 23,  5)  (  1, 24,  3)

 MAXIMUM RESIDUAL FOR EACH ITERATION (1 INDICATES THE FIRST INNER ITERATION):

    RESIDUAL       RESIDUAL       RESIDUAL       RESIDUAL       RESIDUAL    
   LAYER,ROW,COL  LAYER,ROW,COL  LAYER,ROW,COL  LAYER,ROW,COL  LAYER,ROW,COL
 ---------------------------------------------------------------------------
  1  0.5997E-05  0  0.7317E-07  0  0.3582E-09  1  0.6236E-11
   (  1, 24,  4)  (  1, 23,  5)  (  1, 24,  4)  (  1, 23,  4)


 SOLVING FOR ZETA FOR LAYER     2 ZONE     2
     2 CALLS TO PCG ROUTINE FOR TIME STEP  68 IN STRESS PERIOD    2
     4 TOTAL ITERATIONS

 MAXIMUM HEAD CHANGE FOR EACH ITERATION (1 INDICATES THE FIRST INNER ITERATION):

    HEAD CHANGE    HEAD CHANGE    HEAD CHANGE    HEAD CHANGE    HEAD CHANGE 
   LAYER,ROW,COL  LAYER,ROW,COL  LAYER,ROW,COL  LAYER,ROW,COL  LAYER,ROW,COL
 ---------------------------------------------------------------------------
  1   3.008      0  0.4288E-01  0  0.5280E-03  1  0.7899E-05
   (  1, 10, 10)  (  1, 12,  9)  (  1, 24,  8)  (  1, 28,  5)

 MAXIMUM RESIDUAL FOR EACH ITERATION (1 INDICATES THE FIRST INNER ITERATION):

    RESIDUAL       RESIDUAL       RESIDUAL       RESIDUAL       RESIDUAL    
   LAYER,ROW,COL  LAYER,ROW,COL  LAYER,ROW,COL  LAYER,ROW,COL  LAYER,ROW,COL
 ---------------------------------------------------------------------------
  1 -0.1441E-04  0 -0.1950E-06  0 -0.3232E-08  1 -0.8202E-10
   (  1, 12,  9)  (  1, 24,  8)  (  1, 28,  5)  (  1, 29,  4)


 UBUDSV SAVING "      ZETASRF  1" ON UNIT170 AT TIME STEP 68, STRESS PERIOD    2


                      VOLUMETRIC SWI ZONE BUDGET FOR ENTIRE MODEL
                     AT END OF TIME STEP   68 IN STRESS PERIOD   2
                                      ZONE     1
  -----------------------------------------------------------------------------------

        CUMULATIVE VOLUMES      L**3       RATES FOR THIS TIME STEP      L**3/T
        ------------------                 ------------------------

              IN:                                      IN:
              ---                                      ---
             BOUNDARIES =   738972480.0000            BOUNDARIES =           0.1935
          CONSTANT HEAD =           0.0000         CONSTANT HEAD =           0.0000
            ZONE CHANGE =   188832288.0000           ZONE CHANGE =       5.8584E-02
       ZONE CHG TIP/TOE =     9676093.0000      ZONE CHG TIP/TOE =       9.2848E-03
            ZONE MIXING =           0.0000           ZONE MIXING =           0.0000

               TOTAL IN =   937480832.0000              TOTAL IN =           0.2614

             OUT:                                     OUT:
             ----                                     ----
             BOUNDARIES =   834219648.0000            BOUNDARIES =           0.2596
          CONSTANT HEAD =           0.0000         CONSTANT HEAD =           0.0000
            ZONE CHANGE =    30251948.0000           ZONE CHANGE =       1.5186E-02
       ZONE CHG TIP/TOE =     7808594.5000      ZONE CHG TIP/TOE =       5.3104E-03
            ZONE MIXING =      840567.6875           ZONE MIXING =           0.0000

              TOTAL OUT =   873120768.0000             TOTAL OUT =           0.2801

               IN - OUT =    64360064.0000              IN - OUT =      -1.8714E-02

    PERCENT DISCREPANCY =           7.11     PERCENT DISCREPANCY =          -6.91



                      VOLUMETRIC SWI ZONE BUDGET FOR ENTIRE MODEL
                     AT END OF TIME STEP   68 IN STRESS PERIOD   2
                                      ZONE     2
  -----------------------------------------------------------------------------------

        CUMULATIVE VOLUMES      L**3       RATES FOR THIS TIME STEP      L**3/T
        ------------------                 ------------------------

              IN:                                      IN:
              ---                                      ---
             BOUNDARIES =    92444560.0000            BOUNDARIES =           0.1233
          CONSTANT HEAD =           0.0000         CONSTANT HEAD =           0.0000
            ZONE CHANGE =    26016920.0000           ZONE CHANGE =       8.9567E-03
       ZONE CHG TIP/TOE =    17350936.0000      ZONE CHG TIP/TOE =       2.2430E-02
            ZONE MIXING =      840567.6875           ZONE MIXING =           0.0000

               TOTAL IN =   136652992.0000              TOTAL IN =           0.1546

             OUT:                                     OUT:
             ----                                     ----
             BOUNDARIES =    81964800.0000            BOUNDARIES =           0.1016
          CONSTANT HEAD =           0.0000         CONSTANT HEAD =           0.0000
            ZONE CHANGE =    51869148.0000           ZONE CHANGE =       3.9194E-02
       ZONE CHG TIP/TOE =     6080463.0000      ZONE CHG TIP/TOE =       2.5368E-03
            ZONE MIXING =           0.0000           ZONE MIXING =           0.0000

              TOTAL OUT =   139914416.0000             TOTAL OUT =           0.1433

               IN - OUT =    -3261424.0000              IN - OUT =       1.1331E-02

    PERCENT DISCREPANCY =          -2.36     PERCENT DISCREPANCY =           7.61


 HEAD WILL BE SAVED ON UNIT   37 AT END OF TIME STEP   68, STRESS PERIOD    2

 DRAWDOWN WILL BE SAVED ON UNIT   38 AT END OF TIME STEP   68, STRESS PERIOD    2
1
  VOLUMETRIC BUDGET FOR ENTIRE MODEL AT END OF TIME STEP   68, STRESS PERIOD   2
  ------------------------------------------------------------------------------

     CUMULATIVE VOLUMES      L**3       RATES FOR THIS TIME STEP      L**3/T
     ------------------                 ------------------------

           IN:                                      IN:
           ---                                      ---
             STORAGE =    79367632.0000               STORAGE =       4.4507E-02
       CONSTANT HEAD =           0.0000         CONSTANT HEAD =           0.0000
               WELLS =           0.0000                 WELLS =           0.0000
       RIVER LEAKAGE =   154544288.0000         RIVER LEAKAGE =       3.9000E-02
                  ET =           0.0000                    ET =           0.0000
     HEAD DEP BOUNDS =   102381656.0000       HEAD DEP BOUNDS =           0.1258
            RECHARGE =   621664512.0000              RECHARGE =           0.1726
          SWIADDTOCH =           0.0000            SWIADDTOCH =           0.0000

            TOTAL IN =   957958080.0000              TOTAL IN =           0.3818

          OUT:                                     OUT:
          ----                                     ----
             STORAGE =       69123.5938               STORAGE =       9.5586E-05
       CONSTANT HEAD =           0.0000         CONSTANT HEAD =           0.0000
               WELLS =   413373856.0000                 WELLS =           0.3800
       RIVER LEAKAGE =    21630804.0000         RIVER LEAKAGE =           0.0000
                  ET =   166413648.0000                    ET =           0.0000
     HEAD DEP BOUNDS =   356483136.0000       HEAD DEP BOUNDS =       1.7501E-03
            RECHARGE =           0.0000              RECHARGE =           0.0000
          SWIADDTOCH =           0.0000            SWIADDTOCH =           0.0000

           TOTAL OUT =   957970560.0000             TOTAL OUT =           0.3818

            IN - OUT =      -12480.0000              IN - OUT =           0.0000

 PERCENT DISCREPANCY =          -0.00     PERCENT DISCREPANCY =           0.00






         TIME SUMMARY AT END OF TIME STEP   68 IN STRESS PERIOD    2
                    SECONDS     MINUTES      HOURS       DAYS        YEARS
                    -----------------------------------------------------------
   TIME STEP LENGTH 1.57680E+07 2.62800E+05  4380.0      182.50     0.49966    
 STRESS PERIOD TIME 1.07222E+09 1.78704E+07 2.97840E+05  12410.      33.977    
         TOTAL TIME 4.22583E+09 7.04305E+07 1.17384E+06  48910.      133.91    
1
 
 SOLVING FOR HEAD 

 CELL CONVERSIONS FOR ITER.=  2  LAYER=  1  STEP= 69  PERIOD=   2   (ROW,COL)
    DRY( 37, 28)   DRY( 42, 26)   

 CELL CONVERSIONS FOR ITER.=  2  LAYER=  2  STEP= 69  PERIOD=   2   (ROW,COL)
    DRY( 13, 35)   
     6 CALLS TO PCG ROUTINE FOR TIME STEP  69 IN STRESS PERIOD    2
    17 TOTAL ITERATIONS

 MAXIMUM HEAD CHANGE FOR EACH ITERATION (1 INDICATES THE FIRST INNER ITERATION):

    HEAD CHANGE    HEAD CHANGE    HEAD CHANGE    HEAD CHANGE    HEAD CHANGE 
   LAYER,ROW,COL  LAYER,ROW,COL  LAYER,ROW,COL  LAYER,ROW,COL  LAYER,ROW,COL
 ---------------------------------------------------------------------------
  1 -0.3520      0  0.8084E-01  0 -0.1733E-01  0 -0.3390E-02  0 -0.1279E-02
   (  1, 21,  8)  (  2, 21,  8)  (  2, 21,  7)  (  2, 19, 11)  (  2,  7, 10)
  0  0.4336E-03  1 -0.3875E-01  0 -0.7161E-02  0 -0.1493E-02  0  0.3664E-03
   (  2,  7, 10)  (  2, 42, 26)  (  2, 40, 27)  (  2, 43, 25)  (  2, 56, 32)
  1 -0.9336E-02  0 -0.6523E-03  1  0.4169E-02  0  0.2831E-03  1 -0.1850E-02
   (  2, 56, 32)  (  2, 56, 32)  (  2, 56, 32)  (  2, 56, 32)  (  2, 56, 32)
  0 -0.9237E-04  1  0.8547E-03
   (  2, 56, 32)  (  2, 50, 39)

 MAXIMUM RESIDUAL FOR EACH ITERATION (1 INDICATES THE FIRST INNER ITERATION):

    RESIDUAL       RESIDUAL       RESIDUAL       RESIDUAL       RESIDUAL    
   LAYER,ROW,COL  LAYER,ROW,COL  LAYER,ROW,COL  LAYER,ROW,COL  LAYER,ROW,COL
 ---------------------------------------------------------------------------
  1 -0.7758E-03  0  0.1815E-03  0 -0.6386E-04  0 -0.1360E-04  0  0.4160E-05
   (  2, 21,  8)  (  2, 21,  7)  (  2, 20,  9)  (  2, 20,  9)  (  2, 17, 11)
  0  0.1597E-05  1  0.2273E-04  0  0.1028E-04  0  0.2042E-05  0  0.7379E-06
   (  2, 17, 11)  (  2, 41, 27)  (  2, 43, 25)  (  2, 43, 25)  (  2, 39, 26)
  1  0.4483E-06  0 -0.1910E-06  1 -0.1404E-06  0 -0.8464E-07  1  0.8224E-07
   (  2, 41, 27)  (  2, 42, 25)  (  2, 56, 32)  (  2, 55, 31)  (  2,  5, 11)
  0 -0.3892E-07  1  0.5215E-07
   (  2, 54, 33)  (  2,  5, 11)



 OUTPUT CONTROL FOR STRESS PERIOD    2   TIME STEP   69
    SAVE HEAD FOR ALL LAYERS
    SAVE DRAWDOWN FOR ALL LAYERS
    SAVE BUDGET
    PRINT BUDGET
 UBDSV1 SAVING "         STORAGE" ON UNIT   9 AT TIME STEP 69, STRESS PERIOD   2
 UBDSV2 SAVING "   CONSTANT HEAD" ON UNIT   9 AT TIME STEP 69, STRESS PERIOD   2
 UBDSV1 SAVING "FLOW RIGHT FACE " ON UNIT   9 AT TIME STEP 69, STRESS PERIOD   2
 UBDSV1 SAVING "FLOW FRONT FACE " ON UNIT   9 AT TIME STEP 69, STRESS PERIOD   2
 UBDSV1 SAVING "FLOW LOWER FACE " ON UNIT   9 AT TIME STEP 69, STRESS PERIOD   2
 UBDSV4 SAVING "           WELLS" ON UNIT   9 AT TIME STEP 69, STRESS PERIOD   2
 UBDSV4 SAVING "   RIVER LEAKAGE" ON UNIT   9 AT TIME STEP 69, STRESS PERIOD   2
 UBDSV3 SAVING "              ET" ON UNIT   9 AT TIME STEP 69, STRESS PERIOD   2
 UBDSV4 SAVING " HEAD DEP BOUNDS" ON UNIT   9 AT TIME STEP 69, STRESS PERIOD   2
 UBDSV3 SAVING "        RECHARGE" ON UNIT   9 AT TIME STEP 69, STRESS PERIOD   2
 SOLVING FOR ZETA FOR LAYER     1 ZONE     2
     2 CALLS TO PCG ROUTINE FOR TIME STEP  69 IN STRESS PERIOD    2
     4 TOTAL ITERATIONS

 MAXIMUM HEAD CHANGE FOR EACH ITERATION (1 INDICATES THE FIRST INNER ITERATION):

    HEAD CHANGE    HEAD CHANGE    HEAD CHANGE    HEAD CHANGE    HEAD CHANGE 
   LAYER,ROW,COL  LAYER,ROW,COL  LAYER,ROW,COL  LAYER,ROW,COL  LAYER,ROW,COL
 ---------------------------------------------------------------------------
  1  -9.778      0  0.3324E-01  0 -0.2277E-03  1 -0.1014E-05
   (  1, 17, 12)  (  1, 23,  7)  (  1, 23,  5)  (  1, 23,  7)

 MAXIMUM RESIDUAL FOR EACH ITERATION (1 INDICATES THE FIRST INNER ITERATION):

    RESIDUAL       RESIDUAL       RESIDUAL       RESIDUAL       RESIDUAL    
   LAYER,ROW,COL  LAYER,ROW,COL  LAYER,ROW,COL  LAYER,ROW,COL  LAYER,ROW,COL
 ---------------------------------------------------------------------------
  1 -0.9962E-05  0  0.7527E-07  0 -0.3506E-09  1 -0.5625E-11
   (  1, 23,  7)  (  1, 23,  5)  (  1, 23,  4)  (  1, 24,  3)


 SOLVING FOR ZETA FOR LAYER     2 ZONE     2
     2 CALLS TO PCG ROUTINE FOR TIME STEP  69 IN STRESS PERIOD    2
     4 TOTAL ITERATIONS

 MAXIMUM HEAD CHANGE FOR EACH ITERATION (1 INDICATES THE FIRST INNER ITERATION):

    HEAD CHANGE    HEAD CHANGE    HEAD CHANGE    HEAD CHANGE    HEAD CHANGE 
   LAYER,ROW,COL  LAYER,ROW,COL  LAYER,ROW,COL  LAYER,ROW,COL  LAYER,ROW,COL
 ---------------------------------------------------------------------------
  1   5.635      0  0.4148E-01  0  0.5969E-03  1  0.7105E-05
   (  1, 17, 11)  (  1, 12,  9)  (  1, 11, 10)  (  1, 28,  5)

 MAXIMUM RESIDUAL FOR EACH ITERATION (1 INDICATES THE FIRST INNER ITERATION):

    RESIDUAL       RESIDUAL       RESIDUAL       RESIDUAL       RESIDUAL    
   LAYER,ROW,COL  LAYER,ROW,COL  LAYER,ROW,COL  LAYER,ROW,COL  LAYER,ROW,COL
 ---------------------------------------------------------------------------
  1 -0.1400E-04  0 -0.2139E-06  0 -0.2892E-08  1 -0.7897E-10
   (  1, 12,  9)  (  1, 11, 10)  (  1, 28,  5)  (  1, 27,  6)


 UBUDSV SAVING "      ZETASRF  1" ON UNIT170 AT TIME STEP 69, STRESS PERIOD    2


                      VOLUMETRIC SWI ZONE BUDGET FOR ENTIRE MODEL
                     AT END OF TIME STEP   69 IN STRESS PERIOD   2
                                      ZONE     1
  -----------------------------------------------------------------------------------

        CUMULATIVE VOLUMES      L**3       RATES FOR THIS TIME STEP      L**3/T
        ------------------                 ------------------------

              IN:                                      IN:
              ---                                      ---
             BOUNDARIES =   742020224.0000            BOUNDARIES =           0.1933
          CONSTANT HEAD =           0.0000         CONSTANT HEAD =           0.0000
            ZONE CHANGE =   189766704.0000           ZONE CHANGE =       5.9261E-02
       ZONE CHG TIP/TOE =     9859400.0000      ZONE CHG TIP/TOE =       1.1625E-02
            ZONE MIXING =           0.0000           ZONE MIXING =           0.0000

               TOTAL IN =   941646336.0000              TOTAL IN =           0.2642

             OUT:                                     OUT:
             ----                                     ----
             BOUNDARIES =   837926272.0000            BOUNDARIES =           0.2351
          CONSTANT HEAD =           0.0000         CONSTANT HEAD =           0.0000
            ZONE CHANGE =    30413532.0000           ZONE CHANGE =       1.0248E-02
       ZONE CHG TIP/TOE =     7922321.5000      ZONE CHG TIP/TOE =       7.2125E-03
            ZONE MIXING =      919127.0625           ZONE MIXING =       4.9822E-03

              TOTAL OUT =   877181248.0000             TOTAL OUT =           0.2575

               IN - OUT =    64465088.0000              IN - OUT =       6.6589E-03

    PERCENT DISCREPANCY =           7.09     PERCENT DISCREPANCY =           2.55



                      VOLUMETRIC SWI ZONE BUDGET FOR ENTIRE MODEL
                     AT END OF TIME STEP   69 IN STRESS PERIOD   2
                                      ZONE     2
  -----------------------------------------------------------------------------------

        CUMULATIVE VOLUMES      L**3       RATES FOR THIS TIME STEP      L**3/T
        ------------------                 ------------------------

              IN:                                      IN:
              ---                                      ---
             BOUNDARIES =    94395128.0000            BOUNDARIES =           0.1237
          CONSTANT HEAD =           0.0000         CONSTANT HEAD =           0.0000
            ZONE CHANGE =    26114802.0000           ZONE CHANGE =       6.2077E-03
       ZONE CHG TIP/TOE =    17482374.0000      ZONE CHG TIP/TOE =       8.3357E-03
            ZONE MIXING =      919127.0625           ZONE MIXING =       4.9822E-03

               TOTAL IN =   138911424.0000              TOTAL IN =           0.1432

             OUT:                                     OUT:
             ----                                     ----
             BOUNDARIES =    83951640.0000            BOUNDARIES =           0.1260
          CONSTANT HEAD =           0.0000         CONSTANT HEAD =           0.0000
            ZONE CHANGE =    52245608.0000           ZONE CHANGE =       2.3875E-02
       ZONE CHG TIP/TOE =     6196159.5000      ZONE CHG TIP/TOE =       7.3374E-03
            ZONE MIXING =           0.0000           ZONE MIXING =           0.0000

              TOTAL OUT =   142393408.0000             TOTAL OUT =           0.1572

               IN - OUT =    -3481984.0000              IN - OUT =      -1.3987E-02

    PERCENT DISCREPANCY =          -2.48     PERCENT DISCREPANCY =          -9.31


 HEAD WILL BE SAVED ON UNIT   37 AT END OF TIME STEP   69, STRESS PERIOD    2

 DRAWDOWN WILL BE SAVED ON UNIT   38 AT END OF TIME STEP   69, STRESS PERIOD    2
1
  VOLUMETRIC BUDGET FOR ENTIRE MODEL AT END OF TIME STEP   69, STRESS PERIOD   2
  ------------------------------------------------------------------------------

     CUMULATIVE VOLUMES      L**3       RATES FOR THIS TIME STEP      L**3/T
     ------------------                 ------------------------

           IN:                                      IN:
           ---                                      ---
             STORAGE =    80065264.0000               STORAGE =       4.4244E-02
       CONSTANT HEAD =           0.0000         CONSTANT HEAD =           0.0000
               WELLS =           0.0000                 WELLS =           0.0000
       RIVER LEAKAGE =   155159248.0000         RIVER LEAKAGE =       3.9000E-02
                  ET =           0.0000                    ET =           0.0000
     HEAD DEP BOUNDS =   104374016.0000       HEAD DEP BOUNDS =           0.1264
            RECHARGE =   624379520.0000              RECHARGE =           0.1722
          SWIADDTOCH =           0.0000            SWIADDTOCH =           0.0000

            TOTAL IN =   963978048.0000              TOTAL IN =           0.3818

          OUT:                                     OUT:
          ----                                     ----
             STORAGE =       71628.9609               STORAGE =       1.5889E-04
       CONSTANT HEAD =           0.0000         CONSTANT HEAD =           0.0000
               WELLS =   419365696.0000                 WELLS =           0.3800
       RIVER LEAKAGE =    21630804.0000         RIVER LEAKAGE =           0.0000
                  ET =   166413648.0000                    ET =           0.0000
     HEAD DEP BOUNDS =   356508736.0000       HEAD DEP BOUNDS =       1.6236E-03
            RECHARGE =           0.0000              RECHARGE =           0.0000
          SWIADDTOCH =           0.0000            SWIADDTOCH =           0.0000

           TOTAL OUT =   963990528.0000             TOTAL OUT =           0.3818

            IN - OUT =      -12480.0000              IN - OUT =       2.9802E-08

 PERCENT DISCREPANCY =          -0.00     PERCENT DISCREPANCY =           0.00






         TIME SUMMARY AT END OF TIME STEP   69 IN STRESS PERIOD    2
                    SECONDS     MINUTES      HOURS       DAYS        YEARS
                    -----------------------------------------------------------
   TIME STEP LENGTH 1.57680E+07 2.62800E+05  4380.0      182.50     0.49966    
 STRESS PERIOD TIME 1.08799E+09 1.81332E+07 3.02220E+05  12593.      34.476    
         TOTAL TIME 4.24160E+09 7.06933E+07 1.17822E+06  49093.      134.41    
1
 
 SOLVING FOR HEAD 

 CELL CONVERSIONS FOR ITER.=  2  LAYER=  1  STEP= 70  PERIOD=   2   (ROW,COL)
    DRY(  4, 24)   DRY( 14, 30)   

 CELL CONVERSIONS FOR ITER.=  2  LAYER=  2  STEP= 70  PERIOD=   2   (ROW,COL)
    DRY( 52, 39)   

 CELL CONVERSIONS FOR ITER.=  5  LAYER=  1  STEP= 70  PERIOD=   2   (ROW,COL)
    DRY( 35, 31)   
     7 CALLS TO PCG ROUTINE FOR TIME STEP  70 IN STRESS PERIOD    2
    21 TOTAL ITERATIONS

 MAXIMUM HEAD CHANGE FOR EACH ITERATION (1 INDICATES THE FIRST INNER ITERATION):

    HEAD CHANGE    HEAD CHANGE    HEAD CHANGE    HEAD CHANGE    HEAD CHANGE 
   LAYER,ROW,COL  LAYER,ROW,COL  LAYER,ROW,COL  LAYER,ROW,COL  LAYER,ROW,COL
 ---------------------------------------------------------------------------
  1 -0.3146      0 -0.7786E-01  0  0.1719E-01  0 -0.4801E-02  0  0.1676E-02
   (  2, 17, 11)  (  2, 21, 10)  (  2, 20,  9)  (  1, 18, 11)  (  2,  5, 11)
  0  0.4199E-03  1 -0.5950E-01  0  0.1602E-01  0  0.2712E-02  0  0.5874E-03
   (  2,  4, 14)  (  2,  4, 24)  (  2,  4, 24)  (  2, 14, 30)  (  2, 14, 30)
  1 -0.1008E-01  0 -0.3226E-03  1  0.5759E-02  0  0.1687E-03  1 -0.4285E-01
   (  2, 56, 32)  (  2, 55, 31)  (  2, 56, 32)  (  2, 55, 31)  (  2, 35, 31)
  0 -0.4445E-02  0 -0.1104E-02  0 -0.3165E-03  1  0.1273E-02  0  0.3798E-03
   (  2, 36, 29)  (  2, 34, 32)  (  2, 29, 37)  (  2, 56, 32)  (  2, 56, 32)
  1 -0.6281E-03
   (  2, 56, 32)

 MAXIMUM RESIDUAL FOR EACH ITERATION (1 INDICATES THE FIRST INNER ITERATION):

    RESIDUAL       RESIDUAL       RESIDUAL       RESIDUAL       RESIDUAL    
   LAYER,ROW,COL  LAYER,ROW,COL  LAYER,ROW,COL  LAYER,ROW,COL  LAYER,ROW,COL
 ---------------------------------------------------------------------------
  1 -0.4684E-03  0 -0.1672E-03  0 -0.5112E-04  0 -0.1292E-04  0  0.4533E-05
   (  2, 17, 11)  (  2, 17, 11)  (  1, 14,  9)  (  1, 14,  9)  (  2, 14,  9)
  0 -0.1625E-05  1  0.7930E-03  0  0.9421E-04  0  0.1741E-04  0  0.4108E-05
   (  2, 18, 11)  (  1, 35, 31)  (  1, 35, 31)  (  1, 35, 31)  (  1, 35, 31)
  1  0.6351E-05  0  0.1675E-05  1 -0.1358E-04  0 -0.4262E-05  1  0.2790E-04
   (  1, 35, 31)  (  1, 35, 31)  (  2, 35, 31)  (  2, 35, 31)  (  2, 35, 31)
  0  0.9258E-05  0  0.1707E-05  0  0.4954E-06  1  0.2475E-06  0  0.1074E-06
   (  2, 34, 32)  (  2, 34, 32)  (  2, 33, 33)  (  2, 36, 30)  (  2, 36, 30)
  1  0.8503E-07
   (  2,  5, 11)



 OUTPUT CONTROL FOR STRESS PERIOD    2   TIME STEP   70
    SAVE HEAD FOR ALL LAYERS
    SAVE DRAWDOWN FOR ALL LAYERS
    SAVE BUDGET
    PRINT BUDGET
 UBDSV1 SAVING "         STORAGE" ON UNIT   9 AT TIME STEP 70, STRESS PERIOD   2
 UBDSV2 SAVING "   CONSTANT HEAD" ON UNIT   9 AT TIME STEP 70, STRESS PERIOD   2
 UBDSV1 SAVING "FLOW RIGHT FACE " ON UNIT   9 AT TIME STEP 70, STRESS PERIOD   2
 UBDSV1 SAVING "FLOW FRONT FACE " ON UNIT   9 AT TIME STEP 70, STRESS PERIOD   2
 UBDSV1 SAVING "FLOW LOWER FACE " ON UNIT   9 AT TIME STEP 70, STRESS PERIOD   2
 UBDSV4 SAVING "           WELLS" ON UNIT   9 AT TIME STEP 70, STRESS PERIOD   2
 UBDSV4 SAVING "   RIVER LEAKAGE" ON UNIT   9 AT TIME STEP 70, STRESS PERIOD   2
 UBDSV3 SAVING "              ET" ON UNIT   9 AT TIME STEP 70, STRESS PERIOD   2
 UBDSV4 SAVING " HEAD DEP BOUNDS" ON UNIT   9 AT TIME STEP 70, STRESS PERIOD   2
 UBDSV3 SAVING "        RECHARGE" ON UNIT   9 AT TIME STEP 70, STRESS PERIOD   2
 SOLVING FOR ZETA FOR LAYER     1 ZONE     2
     2 CALLS TO PCG ROUTINE FOR TIME STEP  70 IN STRESS PERIOD    2
     4 TOTAL ITERATIONS

 MAXIMUM HEAD CHANGE FOR EACH ITERATION (1 INDICATES THE FIRST INNER ITERATION):

    HEAD CHANGE    HEAD CHANGE    HEAD CHANGE    HEAD CHANGE    HEAD CHANGE 
   LAYER,ROW,COL  LAYER,ROW,COL  LAYER,ROW,COL  LAYER,ROW,COL  LAYER,ROW,COL
 ---------------------------------------------------------------------------
  1   31.30      0  0.2483      0  0.8072E-03  1 -0.3835E-05
   (  1, 20,  9)  (  1, 21,  7)  (  1, 20,  8)  (  1, 21,  8)

 MAXIMUM RESIDUAL FOR EACH ITERATION (1 INDICATES THE FIRST INNER ITERATION):

    RESIDUAL       RESIDUAL       RESIDUAL       RESIDUAL       RESIDUAL    
   LAYER,ROW,COL  LAYER,ROW,COL  LAYER,ROW,COL  LAYER,ROW,COL  LAYER,ROW,COL
 ---------------------------------------------------------------------------
  1 -0.7976E-04  0 -0.2724E-06  0  0.1372E-08  1 -0.9560E-11
   (  1, 21,  7)  (  1, 20,  8)  (  1, 21,  8)  (  1, 20,  8)


 SOLVING FOR ZETA FOR LAYER     2 ZONE     2
     2 CALLS TO PCG ROUTINE FOR TIME STEP  70 IN STRESS PERIOD    2
     4 TOTAL ITERATIONS

 MAXIMUM HEAD CHANGE FOR EACH ITERATION (1 INDICATES THE FIRST INNER ITERATION):

    HEAD CHANGE    HEAD CHANGE    HEAD CHANGE    HEAD CHANGE    HEAD CHANGE 
   LAYER,ROW,COL  LAYER,ROW,COL  LAYER,ROW,COL  LAYER,ROW,COL  LAYER,ROW,COL
 ---------------------------------------------------------------------------
  1  -7.351      0  0.7399E-01  0  0.6843E-03  1  0.6375E-05
   (  1, 17, 12)  (  1, 22, 10)  (  1, 17, 12)  (  1, 28,  5)

 MAXIMUM RESIDUAL FOR EACH ITERATION (1 INDICATES THE FIRST INNER ITERATION):

    RESIDUAL       RESIDUAL       RESIDUAL       RESIDUAL       RESIDUAL    
   LAYER,ROW,COL  LAYER,ROW,COL  LAYER,ROW,COL  LAYER,ROW,COL  LAYER,ROW,COL
 ---------------------------------------------------------------------------
  1 -0.2387E-04  0 -0.2224E-06  0 -0.2564E-08  1 -0.7552E-10
   (  1, 22, 10)  (  1, 11, 10)  (  1, 28,  5)  (  1, 27,  6)


 UBUDSV SAVING "      ZETASRF  1" ON UNIT170 AT TIME STEP 70, STRESS PERIOD    2


                      VOLUMETRIC SWI ZONE BUDGET FOR ENTIRE MODEL
                     AT END OF TIME STEP   70 IN STRESS PERIOD   2
                                      ZONE     1
  -----------------------------------------------------------------------------------

        CUMULATIVE VOLUMES      L**3       RATES FOR THIS TIME STEP      L**3/T
        ------------------                 ------------------------

              IN:                                      IN:
              ---                                      ---
             BOUNDARIES =   745060608.0000            BOUNDARIES =           0.1928
          CONSTANT HEAD =           0.0000         CONSTANT HEAD =           0.0000
            ZONE CHANGE =   190749872.0000           ZONE CHANGE =       6.2352E-02
       ZONE CHG TIP/TOE =     9977375.0000      ZONE CHG TIP/TOE =       7.4819E-03
            ZONE MIXING =           0.0000           ZONE MIXING =           0.0000

               TOTAL IN =   945787840.0000              TOTAL IN =           0.2627

             OUT:                                     OUT:
             ----                                     ----
             BOUNDARIES =   842091968.0000            BOUNDARIES =           0.2642
          CONSTANT HEAD =           0.0000         CONSTANT HEAD =           0.0000
            ZONE CHANGE =    30556308.0000           ZONE CHANGE =       9.0548E-03
       ZONE CHG TIP/TOE =     8016928.5000      ZONE CHG TIP/TOE =       5.9999E-03
            ZONE MIXING =      919127.0625           ZONE MIXING =           0.0000

              TOTAL OUT =   881584320.0000             TOTAL OUT =           0.2792

               IN - OUT =    64203520.0000              IN - OUT =      -1.6587E-02

    PERCENT DISCREPANCY =           7.03     PERCENT DISCREPANCY =          -6.12



                      VOLUMETRIC SWI ZONE BUDGET FOR ENTIRE MODEL
                     AT END OF TIME STEP   70 IN STRESS PERIOD   2
                                      ZONE     2
  -----------------------------------------------------------------------------------

        CUMULATIVE VOLUMES      L**3       RATES FOR THIS TIME STEP      L**3/T
        ------------------                 ------------------------

              IN:                                      IN:
              ---                                      ---
             BOUNDARIES =    96353424.0000            BOUNDARIES =           0.1242
          CONSTANT HEAD =           0.0000         CONSTANT HEAD =           0.0000
            ZONE CHANGE =    26201262.0000           ZONE CHANGE =       5.4833E-03
       ZONE CHG TIP/TOE =    17855400.0000      ZONE CHG TIP/TOE =       2.3657E-02
            ZONE MIXING =      919127.0625           ZONE MIXING =           0.0000

               TOTAL IN =   141329216.0000              TOTAL IN =           0.1533

             OUT:                                     OUT:
             ----                                     ----
             BOUNDARIES =    85477440.0000            BOUNDARIES =       9.6766E-02
          CONSTANT HEAD =           0.0000         CONSTANT HEAD =           0.0000
            ZONE CHANGE =    52935204.0000           ZONE CHANGE =       4.3734E-02
       ZONE CHG TIP/TOE =     6252159.5000      ZONE CHG TIP/TOE =       3.5515E-03
            ZONE MIXING =           0.0000           ZONE MIXING =           0.0000

              TOTAL OUT =   144664800.0000             TOTAL OUT =           0.1441

               IN - OUT =    -3335584.0000              IN - OUT =       9.2835E-03

    PERCENT DISCREPANCY =          -2.33     PERCENT DISCREPANCY =           6.24


 HEAD WILL BE SAVED ON UNIT   37 AT END OF TIME STEP   70, STRESS PERIOD    2

 DRAWDOWN WILL BE SAVED ON UNIT   38 AT END OF TIME STEP   70, STRESS PERIOD    2
1
  VOLUMETRIC BUDGET FOR ENTIRE MODEL AT END OF TIME STEP   70, STRESS PERIOD   2
  ------------------------------------------------------------------------------

     CUMULATIVE VOLUMES      L**3       RATES FOR THIS TIME STEP      L**3/T
     ------------------                 ------------------------

           IN:                                      IN:
           ---                                      ---
             STORAGE =    80759920.0000               STORAGE =       4.4055E-02
       CONSTANT HEAD =           0.0000         CONSTANT HEAD =           0.0000
               WELLS =           0.0000                 WELLS =           0.0000
       RIVER LEAKAGE =   155774208.0000         RIVER LEAKAGE =       3.9000E-02
                  ET =           0.0000                    ET =           0.0000
     HEAD DEP BOUNDS =   106375760.0000       HEAD DEP BOUNDS =           0.1269
            RECHARGE =   627085504.0000              RECHARGE =           0.1716
          SWIADDTOCH =           0.0000            SWIADDTOCH =           0.0000

            TOTAL IN =   969995392.0000              TOTAL IN =           0.3816

          OUT:                                     OUT:
          ----                                     ----
             STORAGE =       73485.1719               STORAGE =       1.1772E-04
       CONSTANT HEAD =           0.0000         CONSTANT HEAD =           0.0000
               WELLS =   425357536.0000                 WELLS =           0.3800
       RIVER LEAKAGE =    21630804.0000         RIVER LEAKAGE =           0.0000
                  ET =   166413648.0000                    ET =           0.0000
     HEAD DEP BOUNDS =   356532384.0000       HEAD DEP BOUNDS =       1.5004E-03
            RECHARGE =           0.0000              RECHARGE =           0.0000
          SWIADDTOCH =           0.0000            SWIADDTOCH =           0.0000

           TOTAL OUT =   970007808.0000             TOTAL OUT =           0.3816

            IN - OUT =      -12416.0000              IN - OUT =           0.0000

 PERCENT DISCREPANCY =          -0.00     PERCENT DISCREPANCY =           0.00






         TIME SUMMARY AT END OF TIME STEP   70 IN STRESS PERIOD    2
                    SECONDS     MINUTES      HOURS       DAYS        YEARS
                    -----------------------------------------------------------
   TIME STEP LENGTH 1.57680E+07 2.62800E+05  4380.0      182.50     0.49966    
 STRESS PERIOD TIME 1.10376E+09 1.83960E+07 3.06600E+05  12775.      34.976    
         TOTAL TIME 4.25736E+09 7.09561E+07 1.18260E+06  49275.      134.91    
1
 
 SOLVING FOR HEAD 

 CELL CONVERSIONS FOR ITER.=  5  LAYER=  1  STEP= 71  PERIOD=   2   (ROW,COL)
    DRY( 42, 28)   
     7 CALLS TO PCG ROUTINE FOR TIME STEP  71 IN STRESS PERIOD    2
    21 TOTAL ITERATIONS

 MAXIMUM HEAD CHANGE FOR EACH ITERATION (1 INDICATES THE FIRST INNER ITERATION):

    HEAD CHANGE    HEAD CHANGE    HEAD CHANGE    HEAD CHANGE    HEAD CHANGE 
   LAYER,ROW,COL  LAYER,ROW,COL  LAYER,ROW,COL  LAYER,ROW,COL  LAYER,ROW,COL
 ---------------------------------------------------------------------------
  1  0.3028      0  0.9180E-01  0 -0.2354E-01  0 -0.5047E-02  0 -0.1529E-02
   (  2, 17, 11)  (  2, 13, 10)  (  2, 14, 11)  (  2, 19, 10)  (  2, 15,  8)
  0  0.6594E-03  1 -0.7677E-01  0 -0.3235E-02  0 -0.9632E-03  1 -0.1036E-01
   (  2,  5, 11)  (  1, 42, 28)  (  1, 42, 28)  (  1, 42, 28)  (  1, 42, 28)
  0 -0.4024E-03  1  0.5721E-02  0  0.1850E-03  1 -0.2279      0 -0.2444E-01
   (  2,  5, 11)  (  2, 56, 32)  (  2, 55, 31)  (  2, 42, 28)  (  2, 40, 29)
  0 -0.5986E-02  0 -0.1173E-02  0 -0.2747E-03  1  0.1410E-02  0  0.6901E-03
   (  2, 43, 27)  (  2, 48, 22)  (  2, 48, 22)  (  2, 56, 32)  (  2, 56, 32)
  1 -0.5668E-03
   (  2, 56, 32)

 MAXIMUM RESIDUAL FOR EACH ITERATION (1 INDICATES THE FIRST INNER ITERATION):

    RESIDUAL       RESIDUAL       RESIDUAL       RESIDUAL       RESIDUAL    
   LAYER,ROW,COL  LAYER,ROW,COL  LAYER,ROW,COL  LAYER,ROW,COL  LAYER,ROW,COL
 ---------------------------------------------------------------------------
  1 -0.6511E-03  0  0.2792E-03  0  0.5273E-04  0 -0.1582E-04  0 -0.4209E-05
   (  2, 13,  9)  (  2, 17, 11)  (  2, 20,  9)  (  2, 19, 11)  (  2, 14,  9)
  0 -0.1538E-05  1  0.2607E-04  0  0.3077E-05  0  0.7954E-06  1  0.2608E-05
   (  2, 19, 10)  (  1, 42, 28)  (  1, 42, 28)  (  2, 17, 11)  (  1, 42, 28)
  0  0.4635E-06  1 -0.9970E-05  0 -0.2551E-05  1  0.1388E-03  0  0.4727E-04
   (  1, 42, 28)  (  2, 42, 28)  (  2, 42, 28)  (  2, 42, 28)  (  2, 41, 29)
  0  0.6332E-05  0  0.2262E-05  0  0.6933E-06  1  0.1194E-05  0  0.5101E-06
   (  2, 41, 29)  (  2, 40, 30)  (  2, 44, 26)  (  2, 41, 28)  (  2, 41, 28)
  1  0.1581E-06
   (  2, 56, 32)



 OUTPUT CONTROL FOR STRESS PERIOD    2   TIME STEP   71
    SAVE HEAD FOR ALL LAYERS
    SAVE DRAWDOWN FOR ALL LAYERS
    SAVE BUDGET
    PRINT BUDGET
 UBDSV1 SAVING "         STORAGE" ON UNIT   9 AT TIME STEP 71, STRESS PERIOD   2
 UBDSV2 SAVING "   CONSTANT HEAD" ON UNIT   9 AT TIME STEP 71, STRESS PERIOD   2
 UBDSV1 SAVING "FLOW RIGHT FACE " ON UNIT   9 AT TIME STEP 71, STRESS PERIOD   2
 UBDSV1 SAVING "FLOW FRONT FACE " ON UNIT   9 AT TIME STEP 71, STRESS PERIOD   2
 UBDSV1 SAVING "FLOW LOWER FACE " ON UNIT   9 AT TIME STEP 71, STRESS PERIOD   2
 UBDSV4 SAVING "           WELLS" ON UNIT   9 AT TIME STEP 71, STRESS PERIOD   2
 UBDSV4 SAVING "   RIVER LEAKAGE" ON UNIT   9 AT TIME STEP 71, STRESS PERIOD   2
 UBDSV3 SAVING "              ET" ON UNIT   9 AT TIME STEP 71, STRESS PERIOD   2
 UBDSV4 SAVING " HEAD DEP BOUNDS" ON UNIT   9 AT TIME STEP 71, STRESS PERIOD   2
 UBDSV3 SAVING "        RECHARGE" ON UNIT   9 AT TIME STEP 71, STRESS PERIOD   2
 SOLVING FOR ZETA FOR LAYER     1 ZONE     2
     2 CALLS TO PCG ROUTINE FOR TIME STEP  71 IN STRESS PERIOD    2
     4 TOTAL ITERATIONS

 MAXIMUM HEAD CHANGE FOR EACH ITERATION (1 INDICATES THE FIRST INNER ITERATION):

    HEAD CHANGE    HEAD CHANGE    HEAD CHANGE    HEAD CHANGE    HEAD CHANGE 
   LAYER,ROW,COL  LAYER,ROW,COL  LAYER,ROW,COL  LAYER,ROW,COL  LAYER,ROW,COL
 ---------------------------------------------------------------------------
  1   16.64      0  0.2165E-01  0 -0.1954E-03  1 -0.1747E-05
   (  1, 16, 10)  (  1, 21,  9)  (  1, 23,  5)  (  1, 21,  9)

 MAXIMUM RESIDUAL FOR EACH ITERATION (1 INDICATES THE FIRST INNER ITERATION):

    RESIDUAL       RESIDUAL       RESIDUAL       RESIDUAL       RESIDUAL    
   LAYER,ROW,COL  LAYER,ROW,COL  LAYER,ROW,COL  LAYER,ROW,COL  LAYER,ROW,COL
 ---------------------------------------------------------------------------
  1 -0.6313E-05  0  0.6513E-07  0  0.5273E-09  1 -0.5879E-11
   (  1, 21,  9)  (  1, 23,  5)  (  1, 21,  9)  (  1, 24,  3)


 SOLVING FOR ZETA FOR LAYER     2 ZONE     2
     2 CALLS TO PCG ROUTINE FOR TIME STEP  71 IN STRESS PERIOD    2
     4 TOTAL ITERATIONS

 MAXIMUM HEAD CHANGE FOR EACH ITERATION (1 INDICATES THE FIRST INNER ITERATION):

    HEAD CHANGE    HEAD CHANGE    HEAD CHANGE    HEAD CHANGE    HEAD CHANGE 
   LAYER,ROW,COL  LAYER,ROW,COL  LAYER,ROW,COL  LAYER,ROW,COL  LAYER,ROW,COL
 ---------------------------------------------------------------------------
  1  -3.458      0 -0.6554E-01  0 -0.7274E-03  1  0.6604E-05
   (  1, 23,  9)  (  1, 24,  8)  (  1, 25,  7)  (  1,  7,  9)

 MAXIMUM RESIDUAL FOR EACH ITERATION (1 INDICATES THE FIRST INNER ITERATION):

    RESIDUAL       RESIDUAL       RESIDUAL       RESIDUAL       RESIDUAL    
   LAYER,ROW,COL  LAYER,ROW,COL  LAYER,ROW,COL  LAYER,ROW,COL  LAYER,ROW,COL
 ---------------------------------------------------------------------------
  1  0.2515E-04  0  0.2684E-06  0 -0.2321E-08  1 -0.4141E-10
   (  1, 24,  8)  (  1, 25,  7)  (  1,  7,  9)  (  1, 29,  4)


 UBUDSV SAVING "      ZETASRF  1" ON UNIT170 AT TIME STEP 71, STRESS PERIOD    2


                      VOLUMETRIC SWI ZONE BUDGET FOR ENTIRE MODEL
                     AT END OF TIME STEP   71 IN STRESS PERIOD   2
                                      ZONE     1
  -----------------------------------------------------------------------------------

        CUMULATIVE VOLUMES      L**3       RATES FOR THIS TIME STEP      L**3/T
        ------------------                 ------------------------

              IN:                                      IN:
              ---                                      ---
             BOUNDARIES =   748083712.0000            BOUNDARIES =           0.1917
          CONSTANT HEAD =           0.0000         CONSTANT HEAD =           0.0000
            ZONE CHANGE =   191724240.0000           ZONE CHANGE =       6.1794E-02
       ZONE CHG TIP/TOE =    10180670.0000      ZONE CHG TIP/TOE =       1.2893E-02
            ZONE MIXING =           0.0000           ZONE MIXING =           0.0000

               TOTAL IN =   949988608.0000              TOTAL IN =           0.2664

             OUT:                                     OUT:
             ----                                     ----
             BOUNDARIES =   846101120.0000            BOUNDARIES =           0.2543
          CONSTANT HEAD =           0.0000         CONSTANT HEAD =           0.0000
            ZONE CHANGE =    30681244.0000           ZONE CHANGE =       7.9234E-03
       ZONE CHG TIP/TOE =     8151211.5000      ZONE CHG TIP/TOE =       8.5162E-03
            ZONE MIXING =      919127.0625           ZONE MIXING =           0.0000

              TOTAL OUT =   885852672.0000             TOTAL OUT =           0.2707

               IN - OUT =    64135936.0000              IN - OUT =      -4.2845E-03

    PERCENT DISCREPANCY =           6.99     PERCENT DISCREPANCY =          -1.60



                      VOLUMETRIC SWI ZONE BUDGET FOR ENTIRE MODEL
                     AT END OF TIME STEP   71 IN STRESS PERIOD   2
                                      ZONE     2
  -----------------------------------------------------------------------------------

        CUMULATIVE VOLUMES      L**3       RATES FOR THIS TIME STEP      L**3/T
        ------------------                 ------------------------

              IN:                                      IN:
              ---                                      ---
             BOUNDARIES =    98313864.0000            BOUNDARIES =           0.1243
          CONSTANT HEAD =           0.0000         CONSTANT HEAD =           0.0000
            ZONE CHANGE =    26295176.0000           ZONE CHANGE =       5.9560E-03
       ZONE CHG TIP/TOE =    18111818.0000      ZONE CHG TIP/TOE =       1.6262E-02
            ZONE MIXING =      919127.0625           ZONE MIXING =           0.0000

               TOTAL IN =   143639984.0000              TOTAL IN =           0.1465

             OUT:                                     OUT:
             ----                                     ----
             BOUNDARIES =    87157920.0000            BOUNDARIES =           0.1066
          CONSTANT HEAD =           0.0000         CONSTANT HEAD =           0.0000
            ZONE CHANGE =    53444324.0000           ZONE CHANGE =       3.2288E-02
       ZONE CHG TIP/TOE =     6423149.0000      ZONE CHG TIP/TOE =       1.0844E-02
            ZONE MIXING =           0.0000           ZONE MIXING =           0.0000

              TOTAL OUT =   147025392.0000             TOTAL OUT =           0.1497

               IN - OUT =    -3385408.0000              IN - OUT =      -3.1590E-03

    PERCENT DISCREPANCY =          -2.33     PERCENT DISCREPANCY =          -2.13


 HEAD WILL BE SAVED ON UNIT   37 AT END OF TIME STEP   71, STRESS PERIOD    2

 DRAWDOWN WILL BE SAVED ON UNIT   38 AT END OF TIME STEP   71, STRESS PERIOD    2
1
  VOLUMETRIC BUDGET FOR ENTIRE MODEL AT END OF TIME STEP   71, STRESS PERIOD   2
  ------------------------------------------------------------------------------

     CUMULATIVE VOLUMES      L**3       RATES FOR THIS TIME STEP      L**3/T
     ------------------                 ------------------------

           IN:                                      IN:
           ---                                      ---
             STORAGE =    81470256.0000               STORAGE =       4.5049E-02
       CONSTANT HEAD =           0.0000         CONSTANT HEAD =           0.0000
               WELLS =           0.0000                 WELLS =           0.0000
       RIVER LEAKAGE =   156373392.0000         RIVER LEAKAGE =       3.8000E-02
                  ET =           0.0000                    ET =           0.0000
     HEAD DEP BOUNDS =   108381152.0000       HEAD DEP BOUNDS =           0.1272
            RECHARGE =   629788480.0000              RECHARGE =           0.1714
          SWIADDTOCH =           0.0000            SWIADDTOCH =           0.0000

            TOTAL IN =   976013312.0000              TOTAL IN =           0.3817

          OUT:                                     OUT:
          ----                                     ----
             STORAGE =       77779.2188               STORAGE =       2.7233E-04
       CONSTANT HEAD =           0.0000         CONSTANT HEAD =           0.0000
               WELLS =   431349376.0000                 WELLS =           0.3800
       RIVER LEAKAGE =    21630804.0000         RIVER LEAKAGE =           0.0000
                  ET =   166413648.0000                    ET =           0.0000
     HEAD DEP BOUNDS =   356554176.0000       HEAD DEP BOUNDS =       1.3811E-03
            RECHARGE =           0.0000              RECHARGE =           0.0000
          SWIADDTOCH =           0.0000            SWIADDTOCH =           0.0000

           TOTAL OUT =   976025792.0000             TOTAL OUT =           0.3817

            IN - OUT =      -12480.0000              IN - OUT =      -8.9407E-08

 PERCENT DISCREPANCY =          -0.00     PERCENT DISCREPANCY =          -0.00






         TIME SUMMARY AT END OF TIME STEP   71 IN STRESS PERIOD    2
                    SECONDS     MINUTES      HOURS       DAYS        YEARS
                    -----------------------------------------------------------
   TIME STEP LENGTH 1.57680E+07 2.62800E+05  4380.0      182.50     0.49966    
 STRESS PERIOD TIME 1.11953E+09 1.86588E+07 3.10980E+05  12958.      35.476    
         TOTAL TIME 4.27313E+09 7.12189E+07 1.18698E+06  49458.      135.41    
1
 
 SOLVING FOR HEAD 

 CELL CONVERSIONS FOR ITER.=  2  LAYER=  1  STEP= 72  PERIOD=   2   (ROW,COL)
    DRY( 42, 24)   

 CELL CONVERSIONS FOR ITER.=  2  LAYER=  2  STEP= 72  PERIOD=   2   (ROW,COL)
    DRY( 57, 32)   
     8 CALLS TO PCG ROUTINE FOR TIME STEP  72 IN STRESS PERIOD    2
    21 TOTAL ITERATIONS

 MAXIMUM HEAD CHANGE FOR EACH ITERATION (1 INDICATES THE FIRST INNER ITERATION):

    HEAD CHANGE    HEAD CHANGE    HEAD CHANGE    HEAD CHANGE    HEAD CHANGE 
   LAYER,ROW,COL  LAYER,ROW,COL  LAYER,ROW,COL  LAYER,ROW,COL  LAYER,ROW,COL
 ---------------------------------------------------------------------------
  1 -0.3557      0  0.7604E-01  0  0.1820E-01  0  0.4241E-02  0  0.1922E-02
   (  1, 17, 11)  (  2, 17, 11)  (  1, 13, 10)  (  2,  6,  8)  (  2,  5, 11)
  0  0.5392E-03  1 -0.3855E-01  0  0.4215E-02  0 -0.1159E-02  0  0.2966E-03
   (  2,  4, 14)  (  2, 42, 24)  (  2, 56, 31)  (  2, 43, 23)  (  2, 56, 31)
  1 -0.6644E-02  0 -0.4561E-03  1  0.4208E-02  0  0.2613E-03  1 -0.2837E-02
   (  2, 56, 31)  (  2, 56, 31)  (  2, 56, 32)  (  2, 56, 32)  (  2, 56, 32)
  0 -0.1218E-03  1  0.1908E-02  0  0.6858E-04  1 -0.1312E-02  0 -0.3255E-04
   (  2, 56, 32)  (  2, 56, 32)  (  2, 56, 32)  (  2, 56, 32)  (  2, 56, 32)
  1  0.9037E-03
   (  2, 56, 32)

 MAXIMUM RESIDUAL FOR EACH ITERATION (1 INDICATES THE FIRST INNER ITERATION):

    RESIDUAL       RESIDUAL       RESIDUAL       RESIDUAL       RESIDUAL    
   LAYER,ROW,COL  LAYER,ROW,COL  LAYER,ROW,COL  LAYER,ROW,COL  LAYER,ROW,COL
 ---------------------------------------------------------------------------
  1 -0.7329E-03  0 -0.1454E-03  0 -0.5152E-04  0 -0.1488E-04  0  0.6477E-05
   (  2, 17, 11)  (  1, 12,  8)  (  1, 12,  8)  (  2, 18, 10)  (  2, 17, 11)
  0  0.2017E-05  1  0.2899E-04  0  0.9953E-05  0  0.2555E-05  0  0.5681E-06
   (  2, 17, 11)  (  2, 42, 24)  (  2, 41, 25)  (  2, 41, 25)  (  2, 44, 22)
  1 -0.3674E-06  0 -0.1726E-06  1  0.2212E-06  0 -0.1082E-06  1  0.9473E-07
   (  2, 22, 11)  (  2, 54, 32)  (  2,  6, 11)  (  2, 55, 31)  (  2,  5, 11)
  0  0.5243E-07  1  0.6870E-07  0  0.3055E-07  1  0.3235E-07  0 -0.1879E-07
   (  2, 55, 31)  (  2,  5, 11)  (  2, 54, 33)  (  2,  5, 11)  (  2, 54, 33)
  1  0.2392E-07
   (  2,  5, 11)



 OUTPUT CONTROL FOR STRESS PERIOD    2   TIME STEP   72
    SAVE HEAD FOR ALL LAYERS
    SAVE DRAWDOWN FOR ALL LAYERS
    SAVE BUDGET
    PRINT BUDGET
 UBDSV1 SAVING "         STORAGE" ON UNIT   9 AT TIME STEP 72, STRESS PERIOD   2
 UBDSV2 SAVING "   CONSTANT HEAD" ON UNIT   9 AT TIME STEP 72, STRESS PERIOD   2
 UBDSV1 SAVING "FLOW RIGHT FACE " ON UNIT   9 AT TIME STEP 72, STRESS PERIOD   2
 UBDSV1 SAVING "FLOW FRONT FACE " ON UNIT   9 AT TIME STEP 72, STRESS PERIOD   2
 UBDSV1 SAVING "FLOW LOWER FACE " ON UNIT   9 AT TIME STEP 72, STRESS PERIOD   2
 UBDSV4 SAVING "           WELLS" ON UNIT   9 AT TIME STEP 72, STRESS PERIOD   2
 UBDSV4 SAVING "   RIVER LEAKAGE" ON UNIT   9 AT TIME STEP 72, STRESS PERIOD   2
 UBDSV3 SAVING "              ET" ON UNIT   9 AT TIME STEP 72, STRESS PERIOD   2
 UBDSV4 SAVING " HEAD DEP BOUNDS" ON UNIT   9 AT TIME STEP 72, STRESS PERIOD   2
 UBDSV3 SAVING "        RECHARGE" ON UNIT   9 AT TIME STEP 72, STRESS PERIOD   2
 SOLVING FOR ZETA FOR LAYER     1 ZONE     2
     2 CALLS TO PCG ROUTINE FOR TIME STEP  72 IN STRESS PERIOD    2
     5 TOTAL ITERATIONS

 MAXIMUM HEAD CHANGE FOR EACH ITERATION (1 INDICATES THE FIRST INNER ITERATION):

    HEAD CHANGE    HEAD CHANGE    HEAD CHANGE    HEAD CHANGE    HEAD CHANGE 
   LAYER,ROW,COL  LAYER,ROW,COL  LAYER,ROW,COL  LAYER,ROW,COL  LAYER,ROW,COL
 ---------------------------------------------------------------------------
  1   33.87      0 -0.1189      0  0.1130E-02  0  0.8245E-05  1 -0.5606E-06
   (  1, 18, 10)  (  1, 18, 10)  (  1, 16,  6)  (  1, 15,  7)  (  1, 18, 10)

 MAXIMUM RESIDUAL FOR EACH ITERATION (1 INDICATES THE FIRST INNER ITERATION):

    RESIDUAL       RESIDUAL       RESIDUAL       RESIDUAL       RESIDUAL    
   LAYER,ROW,COL  LAYER,ROW,COL  LAYER,ROW,COL  LAYER,ROW,COL  LAYER,ROW,COL
 ---------------------------------------------------------------------------
  1 -0.3478E-04  0 -0.3571E-06  0 -0.2939E-08  0 -0.2120E-10  1 -0.1207E-11
   (  1, 15,  7)  (  1, 16,  6)  (  1, 15,  7)  (  1, 16,  6)  (  1, 15,  8)


 SOLVING FOR ZETA FOR LAYER     2 ZONE     2
     2 CALLS TO PCG ROUTINE FOR TIME STEP  72 IN STRESS PERIOD    2
     4 TOTAL ITERATIONS

 MAXIMUM HEAD CHANGE FOR EACH ITERATION (1 INDICATES THE FIRST INNER ITERATION):

    HEAD CHANGE    HEAD CHANGE    HEAD CHANGE    HEAD CHANGE    HEAD CHANGE 
   LAYER,ROW,COL  LAYER,ROW,COL  LAYER,ROW,COL  LAYER,ROW,COL  LAYER,ROW,COL
 ---------------------------------------------------------------------------
  1   5.830      0 -0.3056E-01  0  0.4484E-03  1  0.8177E-05
   (  1, 17, 11)  (  1, 18, 11)  (  1, 27,  6)  (  1, 28,  5)

 MAXIMUM RESIDUAL FOR EACH ITERATION (1 INDICATES THE FIRST INNER ITERATION):

    RESIDUAL       RESIDUAL       RESIDUAL       RESIDUAL       RESIDUAL    
   LAYER,ROW,COL  LAYER,ROW,COL  LAYER,ROW,COL  LAYER,ROW,COL  LAYER,ROW,COL
 ---------------------------------------------------------------------------
  1  0.1018E-04  0 -0.1666E-06  0 -0.3395E-08  1 -0.8852E-10
   (  1, 18, 11)  (  1, 27,  6)  (  1, 28,  5)  (  1, 27,  6)


 UBUDSV SAVING "      ZETASRF  1" ON UNIT170 AT TIME STEP 72, STRESS PERIOD    2


                      VOLUMETRIC SWI ZONE BUDGET FOR ENTIRE MODEL
                     AT END OF TIME STEP   72 IN STRESS PERIOD   2
                                      ZONE     1
  -----------------------------------------------------------------------------------

        CUMULATIVE VOLUMES      L**3       RATES FOR THIS TIME STEP      L**3/T
        ------------------                 ------------------------

              IN:                                      IN:
              ---                                      ---
             BOUNDARIES =   751105408.0000            BOUNDARIES =           0.1916
          CONSTANT HEAD =           0.0000         CONSTANT HEAD =           0.0000
            ZONE CHANGE =   192757680.0000           ZONE CHANGE =       6.5540E-02
       ZONE CHG TIP/TOE =    10286162.0000      ZONE CHG TIP/TOE =       6.6903E-03
            ZONE MIXING =           0.0000           ZONE MIXING =           0.0000

               TOTAL IN =   954149248.0000              TOTAL IN =           0.2639

             OUT:                                     OUT:
             ----                                     ----
             BOUNDARIES =   850793984.0000            BOUNDARIES =           0.2976
          CONSTANT HEAD =           0.0000         CONSTANT HEAD =           0.0000
            ZONE CHANGE =    30811840.0000           ZONE CHANGE =       8.2823E-03
       ZONE CHG TIP/TOE =     8186489.5000      ZONE CHG TIP/TOE =       2.2373E-03
            ZONE MIXING =      996864.4375           ZONE MIXING =       4.9301E-03

              TOTAL OUT =   890789184.0000             TOTAL OUT =           0.3131

               IN - OUT =    63360064.0000              IN - OUT =      -4.9206E-02

    PERCENT DISCREPANCY =           6.87     PERCENT DISCREPANCY =         -17.06



                      VOLUMETRIC SWI ZONE BUDGET FOR ENTIRE MODEL
                     AT END OF TIME STEP   72 IN STRESS PERIOD   2
                                      ZONE     2
  -----------------------------------------------------------------------------------

        CUMULATIVE VOLUMES      L**3       RATES FOR THIS TIME STEP      L**3/T
        ------------------                 ------------------------

              IN:                                      IN:
              ---                                      ---
             BOUNDARIES =   100283120.0000            BOUNDARIES =           0.1249
          CONSTANT HEAD =           0.0000         CONSTANT HEAD =           0.0000
            ZONE CHANGE =    26380076.0000           ZONE CHANGE =       5.3843E-03
       ZONE CHG TIP/TOE =    18923538.0000      ZONE CHG TIP/TOE =       5.1479E-02
            ZONE MIXING =      996864.4375           ZONE MIXING =       4.9301E-03

               TOTAL IN =   146583600.0000              TOTAL IN =           0.1867

             OUT:                                     OUT:
             ----                                     ----
             BOUNDARIES =    88152840.0000            BOUNDARIES =       6.3097E-02
          CONSTANT HEAD =           0.0000         CONSTANT HEAD =           0.0000
            ZONE CHANGE =    54678940.0000           ZONE CHANGE =       7.8299E-02
       ZONE CHG TIP/TOE =     6477179.5000      ZONE CHG TIP/TOE =       3.4266E-03
            ZONE MIXING =           0.0000           ZONE MIXING =           0.0000

              TOTAL OUT =   149308960.0000             TOTAL OUT =           0.1448

               IN - OUT =    -2725360.0000              IN - OUT =       4.1860E-02

    PERCENT DISCREPANCY =          -1.84     PERCENT DISCREPANCY =          25.25


 HEAD WILL BE SAVED ON UNIT   37 AT END OF TIME STEP   72, STRESS PERIOD    2

 DRAWDOWN WILL BE SAVED ON UNIT   38 AT END OF TIME STEP   72, STRESS PERIOD    2
1
  VOLUMETRIC BUDGET FOR ENTIRE MODEL AT END OF TIME STEP   72, STRESS PERIOD   2
  ------------------------------------------------------------------------------

     CUMULATIVE VOLUMES      L**3       RATES FOR THIS TIME STEP      L**3/T
     ------------------                 ------------------------

           IN:                                      IN:
           ---                                      ---
             STORAGE =    82168896.0000               STORAGE =       4.4307E-02
       CONSTANT HEAD =           0.0000         CONSTANT HEAD =           0.0000
               WELLS =           0.0000                 WELLS =           0.0000
       RIVER LEAKAGE =   156972576.0000         RIVER LEAKAGE =       3.8000E-02
                  ET =           0.0000                    ET =           0.0000
     HEAD DEP BOUNDS =   110396912.0000       HEAD DEP BOUNDS =           0.1278
            RECHARGE =   632488512.0000              RECHARGE =           0.1712
          SWIADDTOCH =           0.0000            SWIADDTOCH =           0.0000

            TOTAL IN =   982026880.0000              TOTAL IN =           0.3814

          OUT:                                     OUT:
          ----                                     ----
             STORAGE =       79550.1797               STORAGE =       1.1231E-04
       CONSTANT HEAD =           0.0000         CONSTANT HEAD =           0.0000
               WELLS =   437341216.0000                 WELLS =           0.3800
       RIVER LEAKAGE =    21630804.0000         RIVER LEAKAGE =           0.0000
                  ET =   166413648.0000                    ET =           0.0000
     HEAD DEP BOUNDS =   356574144.0000       HEAD DEP BOUNDS =       1.2665E-03
            RECHARGE =           0.0000              RECHARGE =           0.0000
          SWIADDTOCH =           0.0000            SWIADDTOCH =           0.0000

           TOTAL OUT =   982039360.0000             TOTAL OUT =           0.3814

            IN - OUT =      -12480.0000              IN - OUT =       2.9802E-08

 PERCENT DISCREPANCY =          -0.00     PERCENT DISCREPANCY =           0.00






         TIME SUMMARY AT END OF TIME STEP   72 IN STRESS PERIOD    2
                    SECONDS     MINUTES      HOURS       DAYS        YEARS
                    -----------------------------------------------------------
   TIME STEP LENGTH 1.57680E+07 2.62800E+05  4380.0      182.50     0.49966    
 STRESS PERIOD TIME 1.13530E+09 1.89216E+07 3.15360E+05  13140.      35.975    
         TOTAL TIME 4.28890E+09 7.14817E+07 1.19136E+06  49640.      135.91    
1
 
 SOLVING FOR HEAD 

 CELL CONVERSIONS FOR ITER.=  2  LAYER=  1  STEP= 73  PERIOD=   2   (ROW,COL)
    DRY( 25, 37)   DRY( 43, 25)   

 CELL CONVERSIONS FOR ITER.=  5  LAYER=  1  STEP= 73  PERIOD=   2   (ROW,COL)
    DRY( 42, 29)   

 CELL CONVERSIONS FOR ITER.=  9  LAYER=  1  STEP= 73  PERIOD=   2   (ROW,COL)
    DRY( 43, 29)   
    10 CALLS TO PCG ROUTINE FOR TIME STEP  73 IN STRESS PERIOD    2
    32 TOTAL ITERATIONS

 MAXIMUM HEAD CHANGE FOR EACH ITERATION (1 INDICATES THE FIRST INNER ITERATION):

    HEAD CHANGE    HEAD CHANGE    HEAD CHANGE    HEAD CHANGE    HEAD CHANGE 
   LAYER,ROW,COL  LAYER,ROW,COL  LAYER,ROW,COL  LAYER,ROW,COL  LAYER,ROW,COL
 ---------------------------------------------------------------------------
  1 -0.2595      0  0.7871E-01  0  0.1403E-01  0 -0.5099E-02  0  0.1852E-02
   (  1, 14,  9)  (  2, 16, 12)  (  1, 18, 10)  (  2,  5, 11)  (  2,  5, 11)
  0 -0.4593E-03  1 -0.7440E-01  0  0.1630E-01  0  0.2677E-02  0  0.7112E-03
   (  2,  6, 12)  (  2, 25, 37)  (  2, 25, 37)  (  2, 25, 37)  (  2, 25, 37)
  1 -0.7029E-02  0 -0.2613E-03  1  0.4393E-02  0  0.1794E-03  1 -0.2277    
   (  2, 56, 31)  (  2, 55, 31)  (  2, 56, 32)  (  2, 55, 31)  (  2, 42, 29)
  0 -0.2471E-01  0 -0.5883E-02  0 -0.1052E-02  0 -0.2614E-03  1 -0.5727E-01
   (  2, 41, 31)  (  2, 43, 28)  (  2, 48, 22)  (  2, 49, 23)  (  1, 43, 29)
  0 -0.2979E-02  0 -0.3922E-03  1 -0.8738E-02  0 -0.1353E-03  1  0.1706E-02
   (  1, 43, 29)  (  1, 43, 29)  (  1, 43, 29)  (  2,  5, 11)  (  2, 56, 32)
  0  0.1365E-03  1 -0.2419      0 -0.2570E-01  0 -0.5942E-02  0 -0.1112E-02
   (  2, 43, 29)  (  2, 43, 29)  (  2, 45, 28)  (  2, 44, 28)  (  2, 49, 23)
  0 -0.2415E-03  1  0.6629E-03
   (  2, 49, 23)  (  2, 56, 32)

 MAXIMUM RESIDUAL FOR EACH ITERATION (1 INDICATES THE FIRST INNER ITERATION):

    RESIDUAL       RESIDUAL       RESIDUAL       RESIDUAL       RESIDUAL    
   LAYER,ROW,COL  LAYER,ROW,COL  LAYER,ROW,COL  LAYER,ROW,COL  LAYER,ROW,COL
 ---------------------------------------------------------------------------
  1 -0.5702E-03  0  0.1179E-03  0 -0.5257E-04  0  0.1674E-04  0  0.3989E-05
   (  2, 23,  7)  (  1, 23,  8)  (  2, 22,  8)  (  2, 18, 10)  (  2, 14,  9)
  0 -0.1607E-05  1  0.2756E-03  0  0.2907E-04  0  0.5497E-05  0  0.1183E-05
   (  2, 13,  9)  (  1, 42, 29)  (  1, 42, 29)  (  1, 42, 29)  (  1, 42, 29)
  1  0.2109E-05  0  0.4377E-06  1 -0.4813E-05  0 -0.1505E-05  1  0.1325E-03
   (  1, 42, 29)  (  1, 42, 29)  (  2, 42, 29)  (  2, 42, 29)  (  2, 42, 29)
  0  0.4440E-04  0  0.5688E-05  0  0.2031E-05  0  0.6125E-06  1  0.1132E-04
   (  2, 41, 30)  (  2, 41, 30)  (  2, 40, 31)  (  2, 40, 31)  (  2, 43, 29)
  0  0.2661E-05  0  0.5847E-06  1  0.4896E-06  0  0.3226E-06  1 -0.3447E-05
   (  2, 43, 29)  (  2, 43, 29)  (  2, 43, 29)  (  2, 43, 29)  (  2, 43, 29)
  0 -0.7785E-06  1  0.1283E-03  0  0.4485E-04  0  0.4847E-05  0  0.2139E-05
   (  2, 43, 29)  (  2, 43, 29)  (  2, 42, 30)  (  2, 42, 30)  (  2, 41, 31)
  0  0.5862E-06  1 -0.6321E-06
   (  2, 41, 31)  (  2, 40, 29)



 OUTPUT CONTROL FOR STRESS PERIOD    2   TIME STEP   73
    SAVE HEAD FOR ALL LAYERS
    SAVE DRAWDOWN FOR ALL LAYERS
    SAVE BUDGET
    PRINT BUDGET
 UBDSV1 SAVING "         STORAGE" ON UNIT   9 AT TIME STEP 73, STRESS PERIOD   2
 UBDSV2 SAVING "   CONSTANT HEAD" ON UNIT   9 AT TIME STEP 73, STRESS PERIOD   2
 UBDSV1 SAVING "FLOW RIGHT FACE " ON UNIT   9 AT TIME STEP 73, STRESS PERIOD   2
 UBDSV1 SAVING "FLOW FRONT FACE " ON UNIT   9 AT TIME STEP 73, STRESS PERIOD   2
 UBDSV1 SAVING "FLOW LOWER FACE " ON UNIT   9 AT TIME STEP 73, STRESS PERIOD   2
 UBDSV4 SAVING "           WELLS" ON UNIT   9 AT TIME STEP 73, STRESS PERIOD   2
 UBDSV4 SAVING "   RIVER LEAKAGE" ON UNIT   9 AT TIME STEP 73, STRESS PERIOD   2
 UBDSV3 SAVING "              ET" ON UNIT   9 AT TIME STEP 73, STRESS PERIOD   2
 UBDSV4 SAVING " HEAD DEP BOUNDS" ON UNIT   9 AT TIME STEP 73, STRESS PERIOD   2
 UBDSV3 SAVING "        RECHARGE" ON UNIT   9 AT TIME STEP 73, STRESS PERIOD   2
 SOLVING FOR ZETA FOR LAYER     1 ZONE     2
     2 CALLS TO PCG ROUTINE FOR TIME STEP  73 IN STRESS PERIOD    2
     4 TOTAL ITERATIONS

 MAXIMUM HEAD CHANGE FOR EACH ITERATION (1 INDICATES THE FIRST INNER ITERATION):

    HEAD CHANGE    HEAD CHANGE    HEAD CHANGE    HEAD CHANGE    HEAD CHANGE 
   LAYER,ROW,COL  LAYER,ROW,COL  LAYER,ROW,COL  LAYER,ROW,COL  LAYER,ROW,COL
 ---------------------------------------------------------------------------
  1  -9.835      0  0.3742E-01  0 -0.2879E-03  1 -0.2100E-05
   (  1, 14, 10)  (  1, 22,  8)  (  1, 24,  7)  (  1, 25,  6)

 MAXIMUM RESIDUAL FOR EACH ITERATION (1 INDICATES THE FIRST INNER ITERATION):

    RESIDUAL       RESIDUAL       RESIDUAL       RESIDUAL       RESIDUAL    
   LAYER,ROW,COL  LAYER,ROW,COL  LAYER,ROW,COL  LAYER,ROW,COL  LAYER,ROW,COL
 ---------------------------------------------------------------------------
  1 -0.1137E-04  0  0.7950E-07  0  0.6459E-09  1  0.6845E-11
   (  1, 22,  8)  (  1, 24,  7)  (  1, 25,  6)  (  1, 24,  7)


 SOLVING FOR ZETA FOR LAYER     2 ZONE     2
     2 CALLS TO PCG ROUTINE FOR TIME STEP  73 IN STRESS PERIOD    2
     4 TOTAL ITERATIONS

 MAXIMUM HEAD CHANGE FOR EACH ITERATION (1 INDICATES THE FIRST INNER ITERATION):

    HEAD CHANGE    HEAD CHANGE    HEAD CHANGE    HEAD CHANGE    HEAD CHANGE 
   LAYER,ROW,COL  LAYER,ROW,COL  LAYER,ROW,COL  LAYER,ROW,COL  LAYER,ROW,COL
 ---------------------------------------------------------------------------
  1   2.767      0  0.2469E-01  0  0.3497E-03  1  0.4007E-05
   (  1, 13, 11)  (  1,  8,  8)  (  1,  7,  9)  (  1, 28,  5)

 MAXIMUM RESIDUAL FOR EACH ITERATION (1 INDICATES THE FIRST INNER ITERATION):

    RESIDUAL       RESIDUAL       RESIDUAL       RESIDUAL       RESIDUAL    
   LAYER,ROW,COL  LAYER,ROW,COL  LAYER,ROW,COL  LAYER,ROW,COL  LAYER,ROW,COL
 ---------------------------------------------------------------------------
  1 -0.7611E-05  0 -0.1236E-06  0 -0.1632E-08  1 -0.4765E-10
   (  1,  9,  9)  (  1,  7,  9)  (  1, 28,  5)  (  1, 29,  4)


 UBUDSV SAVING "      ZETASRF  1" ON UNIT170 AT TIME STEP 73, STRESS PERIOD    2


                      VOLUMETRIC SWI ZONE BUDGET FOR ENTIRE MODEL
                     AT END OF TIME STEP   73 IN STRESS PERIOD   2
                                      ZONE     1
  -----------------------------------------------------------------------------------

        CUMULATIVE VOLUMES      L**3       RATES FOR THIS TIME STEP      L**3/T
        ------------------                 ------------------------

              IN:                                      IN:
              ---                                      ---
             BOUNDARIES =   754085440.0000            BOUNDARIES =           0.1890
          CONSTANT HEAD =           0.0000         CONSTANT HEAD =           0.0000
            ZONE CHANGE =   193680688.0000           ZONE CHANGE =       5.8537E-02
       ZONE CHG TIP/TOE =    10403306.0000      ZONE CHG TIP/TOE =       7.4292E-03
            ZONE MIXING =           0.0000           ZONE MIXING =           0.0000

               TOTAL IN =   958169472.0000              TOTAL IN =           0.2550

             OUT:                                     OUT:
             ----                                     ----
             BOUNDARIES =   854569280.0000            BOUNDARIES =           0.2394
          CONSTANT HEAD =           0.0000         CONSTANT HEAD =           0.0000
            ZONE CHANGE =    30950296.0000           ZONE CHANGE =       8.7808E-03
       ZONE CHG TIP/TOE =     8302546.5000      ZONE CHG TIP/TOE =       7.3603E-03
            ZONE MIXING =      996864.4375           ZONE MIXING =           0.0000

              TOTAL OUT =   894819008.0000             TOTAL OUT =           0.2556

               IN - OUT =    63350464.0000              IN - OUT =      -6.1110E-04

    PERCENT DISCREPANCY =           6.84     PERCENT DISCREPANCY =          -0.24



                      VOLUMETRIC SWI ZONE BUDGET FOR ENTIRE MODEL
                     AT END OF TIME STEP   73 IN STRESS PERIOD   2
                                      ZONE     2
  -----------------------------------------------------------------------------------

        CUMULATIVE VOLUMES      L**3       RATES FOR THIS TIME STEP      L**3/T
        ------------------                 ------------------------

              IN:                                      IN:
              ---                                      ---
             BOUNDARIES =   102259864.0000            BOUNDARIES =           0.1254
          CONSTANT HEAD =           0.0000         CONSTANT HEAD =           0.0000
            ZONE CHANGE =    26489912.0000           ZONE CHANGE =       6.9658E-03
       ZONE CHG TIP/TOE =    19079398.0000      ZONE CHG TIP/TOE =       9.8846E-03
            ZONE MIXING =      996864.4375           ZONE MIXING =           0.0000

               TOTAL IN =   148826048.0000              TOTAL IN =           0.1422

             OUT:                                     OUT:
             ----                                     ----
             BOUNDARIES =    90063840.0000            BOUNDARIES =           0.1212
          CONSTANT HEAD =           0.0000         CONSTANT HEAD =           0.0000
            ZONE CHANGE =    55040636.0000           ZONE CHANGE =       2.2939E-02
       ZONE CHG TIP/TOE =     6558575.5000      ZONE CHG TIP/TOE =       5.1621E-03
            ZONE MIXING =           0.0000           ZONE MIXING =           0.0000

              TOTAL OUT =   151663056.0000             TOTAL OUT =           0.1493

               IN - OUT =    -2837008.0000              IN - OUT =      -7.0809E-03

    PERCENT DISCREPANCY =          -1.89     PERCENT DISCREPANCY =          -4.86


 HEAD WILL BE SAVED ON UNIT   37 AT END OF TIME STEP   73, STRESS PERIOD    2

 DRAWDOWN WILL BE SAVED ON UNIT   38 AT END OF TIME STEP   73, STRESS PERIOD    2
1
  VOLUMETRIC BUDGET FOR ENTIRE MODEL AT END OF TIME STEP   73, STRESS PERIOD   2
  ------------------------------------------------------------------------------

     CUMULATIVE VOLUMES      L**3       RATES FOR THIS TIME STEP      L**3/T
     ------------------                 ------------------------

           IN:                                      IN:
           ---                                      ---
             STORAGE =    82900448.0000               STORAGE =       4.6395E-02
       CONSTANT HEAD =           0.0000         CONSTANT HEAD =           0.0000
               WELLS =           0.0000                 WELLS =           0.0000
       RIVER LEAKAGE =   157540224.0000         RIVER LEAKAGE =       3.6000E-02
                  ET =           0.0000                    ET =           0.0000
     HEAD DEP BOUNDS =   112422016.0000       HEAD DEP BOUNDS =           0.1284
            RECHARGE =   635176512.0000              RECHARGE =           0.1705
          SWIADDTOCH =           0.0000            SWIADDTOCH =           0.0000

            TOTAL IN =   988039168.0000              TOTAL IN =           0.3813

          OUT:                                     OUT:
          ----                                     ----
             STORAGE =       81584.5859               STORAGE =       1.2902E-04
       CONSTANT HEAD =           0.0000         CONSTANT HEAD =           0.0000
               WELLS =   443333056.0000                 WELLS =           0.3800
       RIVER LEAKAGE =    21630804.0000         RIVER LEAKAGE =           0.0000
                  ET =   166413648.0000                    ET =           0.0000
     HEAD DEP BOUNDS =   356592576.0000       HEAD DEP BOUNDS =       1.1694E-03
            RECHARGE =           0.0000              RECHARGE =           0.0000
          SWIADDTOCH =           0.0000            SWIADDTOCH =           0.0000

           TOTAL OUT =   988051712.0000             TOTAL OUT =           0.3813

            IN - OUT =      -12544.0000              IN - OUT =      -5.0664E-07

 PERCENT DISCREPANCY =          -0.00     PERCENT DISCREPANCY =          -0.00






         TIME SUMMARY AT END OF TIME STEP   73 IN STRESS PERIOD    2
                    SECONDS     MINUTES      HOURS       DAYS        YEARS
                    -----------------------------------------------------------
   TIME STEP LENGTH 1.57680E+07 2.62800E+05  4380.0      182.50     0.49966    
 STRESS PERIOD TIME 1.15106E+09 1.91844E+07 3.19740E+05  13323.      36.475    
         TOTAL TIME 4.30467E+09 7.17445E+07 1.19574E+06  49823.      136.41    
1
 
 SOLVING FOR HEAD 

 CELL CONVERSIONS FOR ITER.=  6  LAYER=  1  STEP= 74  PERIOD=   2   (ROW,COL)
    DRY( 44, 21)   
     8 CALLS TO PCG ROUTINE FOR TIME STEP  74 IN STRESS PERIOD    2
    21 TOTAL ITERATIONS

 MAXIMUM HEAD CHANGE FOR EACH ITERATION (1 INDICATES THE FIRST INNER ITERATION):

    HEAD CHANGE    HEAD CHANGE    HEAD CHANGE    HEAD CHANGE    HEAD CHANGE 
   LAYER,ROW,COL  LAYER,ROW,COL  LAYER,ROW,COL  LAYER,ROW,COL  LAYER,ROW,COL
 ---------------------------------------------------------------------------
  1 -0.2357      0 -0.8516E-01  0  0.2317E-01  0 -0.6100E-02  0  0.1822E-02
   (  1, 20, 10)  (  2,  6, 10)  (  2,  6, 11)  (  2, 13, 10)  (  2,  6, 12)
  0  0.5838E-03  1  0.1964E-01  0  0.2435E-02  0  0.4866E-03  1 -0.6144E-02
   (  2,  5, 15)  (  2, 55, 33)  (  2, 10, 19)  (  2, 11, 19)  (  2, 56, 31)
  0  0.2369E-03  1  0.3529E-02  0  0.1613E-03  1 -0.3555E-02  0  0.9463E-03
   (  2,  4, 18)  (  2, 56, 31)  (  2, 55, 31)  (  1, 44, 21)  (  2, 44, 20)
  1 -0.5112E-01  0 -0.6745E-02  0 -0.9808E-03  1 -0.1086E-02  0 -0.7372E-03
   (  2, 44, 21)  (  2, 42, 22)  (  2, 40, 25)  (  2, 56, 32)  (  2, 56, 32)
  1  0.8978E-03
   (  2, 56, 32)

 MAXIMUM RESIDUAL FOR EACH ITERATION (1 INDICATES THE FIRST INNER ITERATION):

    RESIDUAL       RESIDUAL       RESIDUAL       RESIDUAL       RESIDUAL    
   LAYER,ROW,COL  LAYER,ROW,COL  LAYER,ROW,COL  LAYER,ROW,COL  LAYER,ROW,COL
 ---------------------------------------------------------------------------
  1 -0.5334E-03  0 -0.1679E-03  0  0.5797E-04  0  0.1539E-04  0  0.6354E-05
   (  2,  8,  9)  (  2, 14, 10)  (  2, 13, 10)  (  2, 15,  8)  (  2, 20, 10)
  0  0.2141E-05  1  0.1268E-02  0  0.1412E-03  0  0.2767E-04  1  0.6425E-05
   (  2, 20, 10)  (  1, 44, 21)  (  1, 44, 21)  (  1, 44, 21)  (  1, 44, 21)
  0  0.1104E-05  1  0.9204E-05  0  0.2569E-05  1 -0.4341E-03  0 -0.5097E-04
   (  1, 44, 21)  (  1, 44, 21)  (  1, 44, 21)  (  2, 44, 21)  (  2, 44, 21)
  1  0.3040E-04  0  0.8593E-05  0  0.1879E-05  1  0.8964E-06  0  0.1981E-06
   (  2, 44, 21)  (  2, 43, 22)  (  2, 43, 22)  (  2, 43, 22)  (  2, 44, 21)
  1  0.1365E-06
   (  2,  5, 11)



 OUTPUT CONTROL FOR STRESS PERIOD    2   TIME STEP   74
    SAVE HEAD FOR ALL LAYERS
    SAVE DRAWDOWN FOR ALL LAYERS
    SAVE BUDGET
    PRINT BUDGET
 UBDSV1 SAVING "         STORAGE" ON UNIT   9 AT TIME STEP 74, STRESS PERIOD   2
 UBDSV2 SAVING "   CONSTANT HEAD" ON UNIT   9 AT TIME STEP 74, STRESS PERIOD   2
 UBDSV1 SAVING "FLOW RIGHT FACE " ON UNIT   9 AT TIME STEP 74, STRESS PERIOD   2
 UBDSV1 SAVING "FLOW FRONT FACE " ON UNIT   9 AT TIME STEP 74, STRESS PERIOD   2
 UBDSV1 SAVING "FLOW LOWER FACE " ON UNIT   9 AT TIME STEP 74, STRESS PERIOD   2
 UBDSV4 SAVING "           WELLS" ON UNIT   9 AT TIME STEP 74, STRESS PERIOD   2
 UBDSV4 SAVING "   RIVER LEAKAGE" ON UNIT   9 AT TIME STEP 74, STRESS PERIOD   2
 UBDSV3 SAVING "              ET" ON UNIT   9 AT TIME STEP 74, STRESS PERIOD   2
 UBDSV4 SAVING " HEAD DEP BOUNDS" ON UNIT   9 AT TIME STEP 74, STRESS PERIOD   2
 UBDSV3 SAVING "        RECHARGE" ON UNIT   9 AT TIME STEP 74, STRESS PERIOD   2
 SOLVING FOR ZETA FOR LAYER     1 ZONE     2
     2 CALLS TO PCG ROUTINE FOR TIME STEP  74 IN STRESS PERIOD    2
     4 TOTAL ITERATIONS

 MAXIMUM HEAD CHANGE FOR EACH ITERATION (1 INDICATES THE FIRST INNER ITERATION):

    HEAD CHANGE    HEAD CHANGE    HEAD CHANGE    HEAD CHANGE    HEAD CHANGE 
   LAYER,ROW,COL  LAYER,ROW,COL  LAYER,ROW,COL  LAYER,ROW,COL  LAYER,ROW,COL
 ---------------------------------------------------------------------------
  1   17.52      0  0.7637E-01  0 -0.2454E-03  1 -0.2258E-05
   (  1, 17, 10)  (  1, 16, 11)  (  1, 24,  7)  (  1, 25,  6)

 MAXIMUM RESIDUAL FOR EACH ITERATION (1 INDICATES THE FIRST INNER ITERATION):

    RESIDUAL       RESIDUAL       RESIDUAL       RESIDUAL       RESIDUAL    
   LAYER,ROW,COL  LAYER,ROW,COL  LAYER,ROW,COL  LAYER,ROW,COL  LAYER,ROW,COL
 ---------------------------------------------------------------------------
  1 -0.2155E-04  0  0.6762E-07  0  0.7088E-09  1  0.6785E-11
   (  1, 16, 11)  (  1, 24,  7)  (  1, 25,  6)  (  1, 24,  7)


 SOLVING FOR ZETA FOR LAYER     2 ZONE     2
     2 CALLS TO PCG ROUTINE FOR TIME STEP  74 IN STRESS PERIOD    2
     4 TOTAL ITERATIONS

 MAXIMUM HEAD CHANGE FOR EACH ITERATION (1 INDICATES THE FIRST INNER ITERATION):

    HEAD CHANGE    HEAD CHANGE    HEAD CHANGE    HEAD CHANGE    HEAD CHANGE 
   LAYER,ROW,COL  LAYER,ROW,COL  LAYER,ROW,COL  LAYER,ROW,COL  LAYER,ROW,COL
 ---------------------------------------------------------------------------
  1   6.128      0 -0.3070E-01  0  0.4797E-03  1  0.8733E-05
   (  1, 17, 11)  (  1, 18, 11)  (  1, 27,  6)  (  1, 28,  5)

 MAXIMUM RESIDUAL FOR EACH ITERATION (1 INDICATES THE FIRST INNER ITERATION):

    RESIDUAL       RESIDUAL       RESIDUAL       RESIDUAL       RESIDUAL    
   LAYER,ROW,COL  LAYER,ROW,COL  LAYER,ROW,COL  LAYER,ROW,COL  LAYER,ROW,COL
 ---------------------------------------------------------------------------
  1  0.1053E-04  0 -0.1779E-06  0 -0.3659E-08  1 -0.9820E-10
   (  1, 18, 11)  (  1, 27,  6)  (  1, 28,  5)  (  1, 27,  6)


 UBUDSV SAVING "      ZETASRF  1" ON UNIT170 AT TIME STEP 74, STRESS PERIOD    2


                      VOLUMETRIC SWI ZONE BUDGET FOR ENTIRE MODEL
                     AT END OF TIME STEP   74 IN STRESS PERIOD   2
                                      ZONE     1
  -----------------------------------------------------------------------------------

        CUMULATIVE VOLUMES      L**3       RATES FOR THIS TIME STEP      L**3/T
        ------------------                 ------------------------

              IN:                                      IN:
              ---                                      ---
             BOUNDARIES =   757064128.0000            BOUNDARIES =           0.1889
          CONSTANT HEAD =           0.0000         CONSTANT HEAD =           0.0000
            ZONE CHANGE =   194644272.0000           ZONE CHANGE =       6.1110E-02
       ZONE CHG TIP/TOE =    10519596.0000      ZONE CHG TIP/TOE =       7.3751E-03
            ZONE MIXING =           0.0000           ZONE MIXING =           0.0000

               TOTAL IN =   962227968.0000              TOTAL IN =           0.2574

             OUT:                                     OUT:
             ----                                     ----
             BOUNDARIES =   858573568.0000            BOUNDARIES =           0.2540
          CONSTANT HEAD =           0.0000         CONSTANT HEAD =           0.0000
            ZONE CHANGE =    31103820.0000           ZONE CHANGE =       9.7364E-03
       ZONE CHG TIP/TOE =     8350546.5000      ZONE CHG TIP/TOE =       3.0441E-03
            ZONE MIXING =      996864.4375           ZONE MIXING =           0.0000

              TOTAL OUT =   899024768.0000             TOTAL OUT =           0.2667

               IN - OUT =    63203200.0000              IN - OUT =      -9.3374E-03

    PERCENT DISCREPANCY =           6.79     PERCENT DISCREPANCY =          -3.56



                      VOLUMETRIC SWI ZONE BUDGET FOR ENTIRE MODEL
                     AT END OF TIME STEP   74 IN STRESS PERIOD   2
                                      ZONE     2
  -----------------------------------------------------------------------------------

        CUMULATIVE VOLUMES      L**3       RATES FOR THIS TIME STEP      L**3/T
        ------------------                 ------------------------

              IN:                                      IN:
              ---                                      ---
             BOUNDARIES =   104243608.0000            BOUNDARIES =           0.1258
          CONSTANT HEAD =           0.0000         CONSTANT HEAD =           0.0000
            ZONE CHANGE =    26605090.0000           ZONE CHANGE =       7.3045E-03
       ZONE CHG TIP/TOE =    19282016.0000      ZONE CHG TIP/TOE =       1.2850E-02
            ZONE MIXING =      996864.4375           ZONE MIXING =           0.0000

               TOTAL IN =   151127584.0000              TOTAL IN =           0.1460

             OUT:                                     OUT:
             ----                                     ----
             BOUNDARIES =    91744320.0000            BOUNDARIES =           0.1066
          CONSTANT HEAD =           0.0000         CONSTANT HEAD =           0.0000
            ZONE CHANGE =    55562924.0000           ZONE CHANGE =       3.3123E-02
       ZONE CHG TIP/TOE =     6630195.5000      ZONE CHG TIP/TOE =       4.5421E-03
            ZONE MIXING =           0.0000           ZONE MIXING =           0.0000

              TOTAL OUT =   153937440.0000             TOTAL OUT =           0.1442

               IN - OUT =    -2809856.0000              IN - OUT =       1.7220E-03

    PERCENT DISCREPANCY =          -1.84     PERCENT DISCREPANCY =           1.19


 HEAD WILL BE SAVED ON UNIT   37 AT END OF TIME STEP   74, STRESS PERIOD    2

 DRAWDOWN WILL BE SAVED ON UNIT   38 AT END OF TIME STEP   74, STRESS PERIOD    2
1
  VOLUMETRIC BUDGET FOR ENTIRE MODEL AT END OF TIME STEP   74, STRESS PERIOD   2
  ------------------------------------------------------------------------------

     CUMULATIVE VOLUMES      L**3       RATES FOR THIS TIME STEP      L**3/T
     ------------------                 ------------------------

           IN:                                      IN:
           ---                                      ---
             STORAGE =    83624472.0000               STORAGE =       4.5918E-02
       CONSTANT HEAD =           0.0000         CONSTANT HEAD =           0.0000
               WELLS =           0.0000                 WELLS =           0.0000
       RIVER LEAKAGE =   158107872.0000         RIVER LEAKAGE =       3.6000E-02
                  ET =           0.0000                    ET =           0.0000
     HEAD DEP BOUNDS =   114455824.0000       HEAD DEP BOUNDS =           0.1290
            RECHARGE =   637861504.0000              RECHARGE =           0.1703
          SWIADDTOCH =           0.0000            SWIADDTOCH =           0.0000

            TOTAL IN =   994049664.0000              TOTAL IN =           0.3812

          OUT:                                     OUT:
          ----                                     ----
             STORAGE =       83293.2188               STORAGE =       1.0836E-04
       CONSTANT HEAD =           0.0000         CONSTANT HEAD =           0.0000
               WELLS =   449324896.0000                 WELLS =           0.3800
       RIVER LEAKAGE =    21630804.0000         RIVER LEAKAGE =           0.0000
                  ET =   166413648.0000                    ET =           0.0000
     HEAD DEP BOUNDS =   356609504.0000       HEAD DEP BOUNDS =       1.0744E-03
            RECHARGE =           0.0000              RECHARGE =           0.0000
          SWIADDTOCH =           0.0000            SWIADDTOCH =           0.0000

           TOTAL OUT =   994062208.0000             TOTAL OUT =           0.3812

            IN - OUT =      -12544.0000              IN - OUT =      -1.7881E-07

 PERCENT DISCREPANCY =          -0.00     PERCENT DISCREPANCY =          -0.00






         TIME SUMMARY AT END OF TIME STEP   74 IN STRESS PERIOD    2
                    SECONDS     MINUTES      HOURS       DAYS        YEARS
                    -----------------------------------------------------------
   TIME STEP LENGTH 1.57680E+07 2.62800E+05  4380.0      182.50     0.49966    
 STRESS PERIOD TIME 1.16683E+09 1.94472E+07 3.24120E+05  13505.      36.975    
         TOTAL TIME 4.32044E+09 7.20073E+07 1.20012E+06  50005.      136.91    
1
 
 SOLVING FOR HEAD 

 CELL CONVERSIONS FOR ITER.=  2  LAYER=  1  STEP= 75  PERIOD=   2   (ROW,COL)
    DRY( 34, 35)   DRY( 37, 35)   DRY( 42, 25)   DRY( 43, 23)   DRY( 44, 26)   
    12 CALLS TO PCG ROUTINE FOR TIME STEP  75 IN STRESS PERIOD    2
    31 TOTAL ITERATIONS

 MAXIMUM HEAD CHANGE FOR EACH ITERATION (1 INDICATES THE FIRST INNER ITERATION):

    HEAD CHANGE    HEAD CHANGE    HEAD CHANGE    HEAD CHANGE    HEAD CHANGE 
   LAYER,ROW,COL  LAYER,ROW,COL  LAYER,ROW,COL  LAYER,ROW,COL  LAYER,ROW,COL
 ---------------------------------------------------------------------------
  1 -0.4041      0  0.9100E-01  0 -0.1892E-01  0  0.4719E-02  0  0.2138E-02
   (  1, 17, 11)  (  2, 17, 11)  (  2, 16,  9)  (  2, 18,  9)  (  2,  5, 11)
  0 -0.5861E-03  1  0.5141      0 -0.8805E-01  0 -0.1470E-01  0 -0.4699E-02
   (  2,  5, 11)  (  2, 34, 35)  (  2, 34, 35)  (  2, 30, 36)  (  2, 44, 20)
  0 -0.8295E-03  1  0.1521E-01  0 -0.5974E-03  1  0.1865E-02  0  0.1008E-02
   (  2, 43, 23)  (  1, 41, 30)  (  2, 33, 35)  (  2, 56, 31)  (  2, 56, 31)
  0  0.1943E-03  1 -0.2069E-02  0 -0.7816E-04  1  0.1811E-02  0  0.6007E-04
   (  2, 56, 31)  (  2, 56, 32)  (  2, 56, 32)  (  2, 56, 32)  (  2, 56, 32)
  1 -0.1592E-02  0 -0.4440E-04  1  0.1413E-02  0  0.2922E-04  1 -0.1263E-02
   (  2, 56, 32)  (  2, 56, 32)  (  2, 56, 32)  (  2, 56, 32)  (  2, 56, 32)
  0 -0.2081E-04  1  0.1132E-02  0  0.1560E-04  1 -0.1019E-02  0 -0.1273E-04
   (  2, 56, 32)  (  2, 56, 32)  (  2, 56, 32)  (  2, 56, 32)  (  2, 56, 32)
  1  0.9161E-03
   (  2, 56, 32)

 MAXIMUM RESIDUAL FOR EACH ITERATION (1 INDICATES THE FIRST INNER ITERATION):

    RESIDUAL       RESIDUAL       RESIDUAL       RESIDUAL       RESIDUAL    
   LAYER,ROW,COL  LAYER,ROW,COL  LAYER,ROW,COL  LAYER,ROW,COL  LAYER,ROW,COL
 ---------------------------------------------------------------------------
  1 -0.7440E-03  0 -0.1681E-03  0 -0.5708E-04  0  0.1628E-04  0  0.4928E-05
   (  2, 17, 11)  (  2, 17, 11)  (  2, 19, 10)  (  2, 18, 11)  (  2, 19, 11)
  0  0.1659E-05  1 -0.4987E-01  0 -0.5761E-02  0  0.9382E-03  0  0.1859E-03
   (  2, 16, 10)  (  2, 41, 30)  (  2, 41, 30)  (  1, 41, 30)  (  1, 41, 30)
  0  0.4407E-04  1  0.5478E-05  0  0.1336E-05  1 -0.3967E-06  0 -0.2580E-06
   (  1, 41, 30)  (  2, 41, 30)  (  2, 42, 21)  (  2,  5, 11)  (  2, 33, 35)
  0 -0.5154E-07  1 -0.8486E-07  0  0.4985E-07  1 -0.5424E-07  0 -0.3313E-07
   (  2, 33, 35)  (  2, 54, 32)  (  2, 55, 31)  (  2, 55, 31)  (  2, 55, 31)
  1  0.4699E-07  0  0.2308E-07  1  0.2995E-07  0  0.1648E-07  1  0.2546E-07
   (  2,  5, 11)  (  2, 55, 31)  (  2,  5, 11)  (  2, 54, 33)  (  2,  5, 11)
  0 -0.1420E-07  1  0.2026E-07  0  0.1175E-07  1 -0.1746E-07  0 -0.1032E-07
   (  2, 54, 33)  (  2, 54, 33)  (  2, 54, 33)  (  2, 54, 33)  (  2, 54, 33)
  1  0.1532E-07
   (  2, 54, 33)



 OUTPUT CONTROL FOR STRESS PERIOD    2   TIME STEP   75
    SAVE HEAD FOR ALL LAYERS
    SAVE DRAWDOWN FOR ALL LAYERS
    SAVE BUDGET
    PRINT BUDGET
 UBDSV1 SAVING "         STORAGE" ON UNIT   9 AT TIME STEP 75, STRESS PERIOD   2
 UBDSV2 SAVING "   CONSTANT HEAD" ON UNIT   9 AT TIME STEP 75, STRESS PERIOD   2
 UBDSV1 SAVING "FLOW RIGHT FACE " ON UNIT   9 AT TIME STEP 75, STRESS PERIOD   2
 UBDSV1 SAVING "FLOW FRONT FACE " ON UNIT   9 AT TIME STEP 75, STRESS PERIOD   2
 UBDSV1 SAVING "FLOW LOWER FACE " ON UNIT   9 AT TIME STEP 75, STRESS PERIOD   2
 UBDSV4 SAVING "           WELLS" ON UNIT   9 AT TIME STEP 75, STRESS PERIOD   2
 UBDSV4 SAVING "   RIVER LEAKAGE" ON UNIT   9 AT TIME STEP 75, STRESS PERIOD   2
 UBDSV3 SAVING "              ET" ON UNIT   9 AT TIME STEP 75, STRESS PERIOD   2
 UBDSV4 SAVING " HEAD DEP BOUNDS" ON UNIT   9 AT TIME STEP 75, STRESS PERIOD   2
 UBDSV3 SAVING "        RECHARGE" ON UNIT   9 AT TIME STEP 75, STRESS PERIOD   2
 SOLVING FOR ZETA FOR LAYER     1 ZONE     2
     2 CALLS TO PCG ROUTINE FOR TIME STEP  75 IN STRESS PERIOD    2
     4 TOTAL ITERATIONS

 MAXIMUM HEAD CHANGE FOR EACH ITERATION (1 INDICATES THE FIRST INNER ITERATION):

    HEAD CHANGE    HEAD CHANGE    HEAD CHANGE    HEAD CHANGE    HEAD CHANGE 
   LAYER,ROW,COL  LAYER,ROW,COL  LAYER,ROW,COL  LAYER,ROW,COL  LAYER,ROW,COL
 ---------------------------------------------------------------------------
  1   16.58      0 -0.2189E-01  0 -0.1678E-03  1 -0.1172E-05
   (  1, 19, 10)  (  1, 25,  6)  (  1, 24,  7)  (  1, 13, 10)

 MAXIMUM RESIDUAL FOR EACH ITERATION (1 INDICATES THE FIRST INNER ITERATION):

    RESIDUAL       RESIDUAL       RESIDUAL       RESIDUAL       RESIDUAL    
   LAYER,ROW,COL  LAYER,ROW,COL  LAYER,ROW,COL  LAYER,ROW,COL  LAYER,ROW,COL
 ---------------------------------------------------------------------------
  1  0.7161E-05  0  0.4794E-07  0  0.3199E-09  1 -0.5201E-11
   (  1, 25,  6)  (  1, 26,  5)  (  1, 13, 10)  (  1, 24,  3)


 SOLVING FOR ZETA FOR LAYER     2 ZONE     2
     2 CALLS TO PCG ROUTINE FOR TIME STEP  75 IN STRESS PERIOD    2
     4 TOTAL ITERATIONS

 MAXIMUM HEAD CHANGE FOR EACH ITERATION (1 INDICATES THE FIRST INNER ITERATION):

    HEAD CHANGE    HEAD CHANGE    HEAD CHANGE    HEAD CHANGE    HEAD CHANGE 
   LAYER,ROW,COL  LAYER,ROW,COL  LAYER,ROW,COL  LAYER,ROW,COL  LAYER,ROW,COL
 ---------------------------------------------------------------------------
  1  -7.396      0  0.5295E-01  0  0.5680E-03  1  0.4820E-05
   (  1, 17, 12)  (  1, 25,  8)  (  1, 26,  7)  (  1, 28,  5)

 MAXIMUM RESIDUAL FOR EACH ITERATION (1 INDICATES THE FIRST INNER ITERATION):

    RESIDUAL       RESIDUAL       RESIDUAL       RESIDUAL       RESIDUAL    
   LAYER,ROW,COL  LAYER,ROW,COL  LAYER,ROW,COL  LAYER,ROW,COL  LAYER,ROW,COL
 ---------------------------------------------------------------------------
  1 -0.1739E-04  0 -0.1624E-06  0 -0.1968E-08  1 -0.5524E-10
   (  1, 25,  8)  (  1, 26,  7)  (  1, 28,  5)  (  1, 29,  4)


 UBUDSV SAVING "      ZETASRF  1" ON UNIT170 AT TIME STEP 75, STRESS PERIOD    2


                      VOLUMETRIC SWI ZONE BUDGET FOR ENTIRE MODEL
                     AT END OF TIME STEP   75 IN STRESS PERIOD   2
                                      ZONE     1
  -----------------------------------------------------------------------------------

        CUMULATIVE VOLUMES      L**3       RATES FOR THIS TIME STEP      L**3/T
        ------------------                 ------------------------

              IN:                                      IN:
              ---                                      ---
             BOUNDARIES =   760039040.0000            BOUNDARIES =           0.1887
          CONSTANT HEAD =           0.0000         CONSTANT HEAD =           0.0000
            ZONE CHANGE =   195487536.0000           ZONE CHANGE =       5.3480E-02
       ZONE CHG TIP/TOE =    10751364.0000      ZONE CHG TIP/TOE =       1.4699E-02
            ZONE MIXING =           0.0000           ZONE MIXING =           0.0000

               TOTAL IN =   966277952.0000              TOTAL IN =           0.2568

             OUT:                                     OUT:
             ----                                     ----
             BOUNDARIES =   862260224.0000            BOUNDARIES =           0.2338
          CONSTANT HEAD =           0.0000         CONSTANT HEAD =           0.0000
            ZONE CHANGE =    31335366.0000           ZONE CHANGE =       1.4685E-02
       ZONE CHG TIP/TOE =     8481018.0000      ZONE CHG TIP/TOE =       8.2745E-03
            ZONE MIXING =      996864.4375           ZONE MIXING =           0.0000

              TOTAL OUT =   903073472.0000             TOTAL OUT =           0.2568

               IN - OUT =    63204480.0000              IN - OUT =       7.9513E-05

    PERCENT DISCREPANCY =           6.76     PERCENT DISCREPANCY =           0.03



                      VOLUMETRIC SWI ZONE BUDGET FOR ENTIRE MODEL
                     AT END OF TIME STEP   75 IN STRESS PERIOD   2
                                      ZONE     2
  -----------------------------------------------------------------------------------

        CUMULATIVE VOLUMES      L**3       RATES FOR THIS TIME STEP      L**3/T
        ------------------                 ------------------------

              IN:                                      IN:
              ---                                      ---
             BOUNDARIES =   106235832.0000            BOUNDARIES =           0.1263
          CONSTANT HEAD =           0.0000         CONSTANT HEAD =           0.0000
            ZONE CHANGE =    26737302.0000           ZONE CHANGE =       8.3848E-03
       ZONE CHG TIP/TOE =    19480330.0000      ZONE CHG TIP/TOE =       1.2577E-02
            ZONE MIXING =      996864.4375           ZONE MIXING =           0.0000

               TOTAL IN =   153450336.0000              TOTAL IN =           0.1473

             OUT:                                     OUT:
             ----                                     ----
             BOUNDARIES =    93655320.0000            BOUNDARIES =           0.1212
          CONSTANT HEAD =           0.0000         CONSTANT HEAD =           0.0000
            ZONE CHANGE =    55952372.0000           ZONE CHANGE =       2.4699E-02
       ZONE CHG TIP/TOE =     6763027.5000      ZONE CHG TIP/TOE =       8.4242E-03
            ZONE MIXING =           0.0000           ZONE MIXING =           0.0000

              TOTAL OUT =   156370720.0000             TOTAL OUT =           0.1543

               IN - OUT =    -2920384.0000              IN - OUT =      -7.0097E-03

    PERCENT DISCREPANCY =          -1.89     PERCENT DISCREPANCY =          -4.65


 HEAD WILL BE SAVED ON UNIT   37 AT END OF TIME STEP   75, STRESS PERIOD    2

 DRAWDOWN WILL BE SAVED ON UNIT   38 AT END OF TIME STEP   75, STRESS PERIOD    2
1
  VOLUMETRIC BUDGET FOR ENTIRE MODEL AT END OF TIME STEP   75, STRESS PERIOD   2
  ------------------------------------------------------------------------------

     CUMULATIVE VOLUMES      L**3       RATES FOR THIS TIME STEP      L**3/T
     ------------------                 ------------------------

           IN:                                      IN:
           ---                                      ---
             STORAGE =    84259920.0000               STORAGE =       4.0300E-02
       CONSTANT HEAD =           0.0000         CONSTANT HEAD =           0.0000
               WELLS =           0.0000                 WELLS =           0.0000
       RIVER LEAKAGE =   158675520.0000         RIVER LEAKAGE =       3.6000E-02
                  ET =           0.0000                    ET =           0.0000
     HEAD DEP BOUNDS =   116500288.0000       HEAD DEP BOUNDS =           0.1297
            RECHARGE =   640531520.0000              RECHARGE =           0.1693
          SWIADDTOCH =           0.0000            SWIADDTOCH =           0.0000

            TOTAL IN =   999967232.0000              TOTAL IN =           0.3753

          OUT:                                     OUT:
          ----                                     ----
             STORAGE =       88193.2812               STORAGE =       3.1076E-04
       CONSTANT HEAD =           0.0000         CONSTANT HEAD =           0.0000
               WELLS =   455222144.0000                 WELLS =           0.3740
       RIVER LEAKAGE =    21630804.0000         RIVER LEAKAGE =           0.0000
                  ET =   166413648.0000                    ET =           0.0000
     HEAD DEP BOUNDS =   356624928.0000       HEAD DEP BOUNDS =       9.7811E-04
            RECHARGE =           0.0000              RECHARGE =           0.0000
          SWIADDTOCH =           0.0000            SWIADDTOCH =           0.0000

           TOTAL OUT =   999979776.0000             TOTAL OUT =           0.3753

            IN - OUT =      -12544.0000              IN - OUT =           0.0000

 PERCENT DISCREPANCY =          -0.00     PERCENT DISCREPANCY =           0.00






         TIME SUMMARY AT END OF TIME STEP   75 IN STRESS PERIOD    2
                    SECONDS     MINUTES      HOURS       DAYS        YEARS
                    -----------------------------------------------------------
   TIME STEP LENGTH 1.57680E+07 2.62800E+05  4380.0      182.50     0.49966    
 STRESS PERIOD TIME 1.18260E+09 1.97100E+07 3.28500E+05  13688.      37.474    
         TOTAL TIME 4.33620E+09 7.22701E+07 1.20450E+06  50188.      137.41    
1
 
 SOLVING FOR HEAD 

 CELL CONVERSIONS FOR ITER.=  2  LAYER=  1  STEP= 76  PERIOD=   2   (ROW,COL)
    DRY( 41, 30)   

 CELL CONVERSIONS FOR ITER.=  2  LAYER=  2  STEP= 76  PERIOD=   2   (ROW,COL)
    DRY( 50, 39)   
    14 CALLS TO PCG ROUTINE FOR TIME STEP  76 IN STRESS PERIOD    2
    33 TOTAL ITERATIONS

 MAXIMUM HEAD CHANGE FOR EACH ITERATION (1 INDICATES THE FIRST INNER ITERATION):

    HEAD CHANGE    HEAD CHANGE    HEAD CHANGE    HEAD CHANGE    HEAD CHANGE 
   LAYER,ROW,COL  LAYER,ROW,COL  LAYER,ROW,COL  LAYER,ROW,COL  LAYER,ROW,COL
 ---------------------------------------------------------------------------
  1  0.3395      0 -0.1411      0 -0.2601E-01  0  0.6164E-02  0  0.2131E-02
   (  2, 17, 11)  (  1, 18, 11)  (  1, 14, 11)  (  1, 18, 11)  (  1, 18, 11)
  0  0.4311E-03  1 -0.3565E-01  0  0.7646E-02  0  0.1967E-02  0  0.6811E-03
   (  2,  5, 11)  (  2, 41, 30)  (  2, 55, 33)  (  2, 55, 33)  (  2, 55, 33)
  1 -0.6397E-02  0 -0.5214E-03  1  0.2049E-02  0  0.2068E-03  1 -0.1590E-02
   (  2, 55, 33)  (  2, 55, 33)  (  2, 56, 31)  (  2, 56, 31)  (  2, 56, 32)
  0 -0.7591E-04  1  0.1473E-02  0  0.5517E-04  1 -0.1384E-02  0 -0.3664E-04
   (  2, 56, 32)  (  2, 56, 32)  (  2, 56, 32)  (  2, 56, 32)  (  2, 56, 32)
  1  0.1307E-02  0  0.2664E-04  1 -0.1243E-02  0 -0.1898E-04  1  0.1187E-02
   (  2, 56, 32)  (  2, 56, 32)  (  2, 56, 32)  (  2, 56, 32)  (  2, 56, 32)
  0  0.1502E-04  1 -0.1135E-02  0  0.1275E-04  1  0.1087E-02  0  0.1143E-04
   (  2, 56, 32)  (  2, 56, 32)  (  2, 54, 33)  (  2, 56, 32)  (  2, 56, 32)
  1 -0.1042E-02  0 -0.1068E-04  1  0.9980E-03
   (  2, 56, 32)  (  2, 56, 32)  (  2, 56, 32)

 MAXIMUM RESIDUAL FOR EACH ITERATION (1 INDICATES THE FIRST INNER ITERATION):

    RESIDUAL       RESIDUAL       RESIDUAL       RESIDUAL       RESIDUAL    
   LAYER,ROW,COL  LAYER,ROW,COL  LAYER,ROW,COL  LAYER,ROW,COL  LAYER,ROW,COL
 ---------------------------------------------------------------------------
  1  0.9034E-03  0  0.3058E-03  0 -0.7987E-04  0 -0.2452E-04  0  0.6040E-05
   (  2, 17, 11)  (  2, 17, 11)  (  1, 18, 11)  (  1, 18, 11)  (  1, 17, 12)
  0  0.2676E-05  1  0.1971E-04  0  0.8201E-05  0  0.2385E-05  0 -0.4483E-06
   (  2, 18, 11)  (  2, 42, 29)  (  2, 42, 29)  (  2, 42, 29)  (  2, 42, 28)
  1 -0.4981E-06  0 -0.2195E-06  1 -0.2766E-06  0  0.6498E-07  1 -0.7085E-07
   (  2,  5, 11)  (  2, 40, 29)  (  2,  5, 11)  (  2, 12, 21)  (  2,  5, 11)
  0 -0.3802E-07  1 -0.6108E-07  0 -0.2938E-07  1  0.3127E-07  0  0.1869E-07
   (  2, 54, 32)  (  2,  5, 11)  (  2, 55, 31)  (  2, 55, 31)  (  2, 55, 31)
  1 -0.3002E-07  0  0.1496E-07  1 -0.2202E-07  0 -0.1262E-07  1  0.1989E-07
   (  2,  5, 11)  (  2, 54, 33)  (  2, 54, 33)  (  2, 54, 33)  (  2, 54, 33)
  0  0.1190E-07  1 -0.1839E-07  0 -0.1050E-07  1  0.1702E-07  0  0.1000E-07
   (  2, 54, 33)  (  2, 54, 33)  (  2, 54, 33)  (  2, 54, 33)  (  2, 54, 33)
  1  0.1788E-07  0 -0.9170E-08  1 -0.1890E-07
   (  2, 54, 32)  (  2, 54, 33)  (  2, 54, 32)



 OUTPUT CONTROL FOR STRESS PERIOD    2   TIME STEP   76
    SAVE HEAD FOR ALL LAYERS
    SAVE DRAWDOWN FOR ALL LAYERS
    SAVE BUDGET
    PRINT BUDGET
 UBDSV1 SAVING "         STORAGE" ON UNIT   9 AT TIME STEP 76, STRESS PERIOD   2
 UBDSV2 SAVING "   CONSTANT HEAD" ON UNIT   9 AT TIME STEP 76, STRESS PERIOD   2
 UBDSV1 SAVING "FLOW RIGHT FACE " ON UNIT   9 AT TIME STEP 76, STRESS PERIOD   2
 UBDSV1 SAVING "FLOW FRONT FACE " ON UNIT   9 AT TIME STEP 76, STRESS PERIOD   2
 UBDSV1 SAVING "FLOW LOWER FACE " ON UNIT   9 AT TIME STEP 76, STRESS PERIOD   2
 UBDSV4 SAVING "           WELLS" ON UNIT   9 AT TIME STEP 76, STRESS PERIOD   2
 UBDSV4 SAVING "   RIVER LEAKAGE" ON UNIT   9 AT TIME STEP 76, STRESS PERIOD   2
 UBDSV3 SAVING "              ET" ON UNIT   9 AT TIME STEP 76, STRESS PERIOD   2
 UBDSV4 SAVING " HEAD DEP BOUNDS" ON UNIT   9 AT TIME STEP 76, STRESS PERIOD   2
 UBDSV3 SAVING "        RECHARGE" ON UNIT   9 AT TIME STEP 76, STRESS PERIOD   2
 SOLVING FOR ZETA FOR LAYER     1 ZONE     2
     2 CALLS TO PCG ROUTINE FOR TIME STEP  76 IN STRESS PERIOD    2
     4 TOTAL ITERATIONS

 MAXIMUM HEAD CHANGE FOR EACH ITERATION (1 INDICATES THE FIRST INNER ITERATION):

    HEAD CHANGE    HEAD CHANGE    HEAD CHANGE    HEAD CHANGE    HEAD CHANGE 
   LAYER,ROW,COL  LAYER,ROW,COL  LAYER,ROW,COL  LAYER,ROW,COL  LAYER,ROW,COL
 ---------------------------------------------------------------------------
  1   38.70      0  0.4448E-01  0  0.5240E-03  1  0.5066E-05
   (  1, 18, 10)  (  1, 25,  5)  (  1, 24,  6)  (  1, 25,  5)

 MAXIMUM RESIDUAL FOR EACH ITERATION (1 INDICATES THE FIRST INNER ITERATION):

    RESIDUAL       RESIDUAL       RESIDUAL       RESIDUAL       RESIDUAL    
   LAYER,ROW,COL  LAYER,ROW,COL  LAYER,ROW,COL  LAYER,ROW,COL  LAYER,ROW,COL
 ---------------------------------------------------------------------------
  1 -0.1636E-04  0 -0.1639E-06  0 -0.1822E-08  1 -0.2072E-10
   (  1, 25,  5)  (  1, 24,  6)  (  1, 25,  5)  (  1, 24,  6)


 SOLVING FOR ZETA FOR LAYER     2 ZONE     2
     2 CALLS TO PCG ROUTINE FOR TIME STEP  76 IN STRESS PERIOD    2
     4 TOTAL ITERATIONS

 MAXIMUM HEAD CHANGE FOR EACH ITERATION (1 INDICATES THE FIRST INNER ITERATION):

    HEAD CHANGE    HEAD CHANGE    HEAD CHANGE    HEAD CHANGE    HEAD CHANGE 
   LAYER,ROW,COL  LAYER,ROW,COL  LAYER,ROW,COL  LAYER,ROW,COL  LAYER,ROW,COL
 ---------------------------------------------------------------------------
  1   4.709      0  0.3474E-01  0  0.4234E-03  1  0.9334E-05
   (  1, 23,  9)  (  1, 25,  8)  (  1, 27,  6)  (  1, 28,  5)

 MAXIMUM RESIDUAL FOR EACH ITERATION (1 INDICATES THE FIRST INNER ITERATION):

    RESIDUAL       RESIDUAL       RESIDUAL       RESIDUAL       RESIDUAL    
   LAYER,ROW,COL  LAYER,ROW,COL  LAYER,ROW,COL  LAYER,ROW,COL  LAYER,ROW,COL
 ---------------------------------------------------------------------------
  1 -0.1126E-04  0 -0.1593E-06  0 -0.3918E-08  1 -0.9222E-10
   (  1, 25,  8)  (  1, 27,  6)  (  1, 28,  5)  (  1, 27,  6)


 UBUDSV SAVING "      ZETASRF  1" ON UNIT170 AT TIME STEP 76, STRESS PERIOD    2


                      VOLUMETRIC SWI ZONE BUDGET FOR ENTIRE MODEL
                     AT END OF TIME STEP   76 IN STRESS PERIOD   2
                                      ZONE     1
  -----------------------------------------------------------------------------------

        CUMULATIVE VOLUMES      L**3       RATES FOR THIS TIME STEP      L**3/T
        ------------------                 ------------------------

              IN:                                      IN:
              ---                                      ---
             BOUNDARIES =   763013440.0000            BOUNDARIES =           0.1886
          CONSTANT HEAD =           0.0000         CONSTANT HEAD =           0.0000
            ZONE CHANGE =   196439856.0000           ZONE CHANGE =       6.0395E-02
       ZONE CHG TIP/TOE =    10857627.0000      ZONE CHG TIP/TOE =       6.7391E-03
            ZONE MIXING =           0.0000           ZONE MIXING =           0.0000

               TOTAL IN =   970310912.0000              TOTAL IN =           0.2558

             OUT:                                     OUT:
             ----                                     ----
             BOUNDARIES =   866254656.0000            BOUNDARIES =           0.2533
          CONSTANT HEAD =           0.0000         CONSTANT HEAD =           0.0000
            ZONE CHANGE =    31409456.0000           ZONE CHANGE =       4.6988E-03
       ZONE CHG TIP/TOE =     8556234.0000      ZONE CHG TIP/TOE =       4.7702E-03
            ZONE MIXING =     1046911.3750           ZONE MIXING =       3.1740E-03

              TOTAL OUT =   907267264.0000             TOTAL OUT =           0.2660

               IN - OUT =    63043648.0000              IN - OUT =      -1.0199E-02

    PERCENT DISCREPANCY =           6.72     PERCENT DISCREPANCY =          -3.91



                      VOLUMETRIC SWI ZONE BUDGET FOR ENTIRE MODEL
                     AT END OF TIME STEP   76 IN STRESS PERIOD   2
                                      ZONE     2
  -----------------------------------------------------------------------------------

        CUMULATIVE VOLUMES      L**3       RATES FOR THIS TIME STEP      L**3/T
        ------------------                 ------------------------

              IN:                                      IN:
              ---                                      ---
             BOUNDARIES =   108231992.0000            BOUNDARIES =           0.1266
          CONSTANT HEAD =           0.0000         CONSTANT HEAD =           0.0000
            ZONE CHANGE =    26798030.0000           ZONE CHANGE =       3.8513E-03
       ZONE CHG TIP/TOE =    19776760.0000      ZONE CHG TIP/TOE =       1.8800E-02
            ZONE MIXING =     1046911.3750           ZONE MIXING =       3.1740E-03

               TOTAL IN =   155853696.0000              TOTAL IN =           0.1524

             OUT:                                     OUT:
             ----                                     ----
             BOUNDARIES =    95256960.0000            BOUNDARIES =           0.1016
          CONSTANT HEAD =           0.0000         CONSTANT HEAD =           0.0000
            ZONE CHANGE =    56606804.0000           ZONE CHANGE =       4.1504E-02
       ZONE CHG TIP/TOE =     6853493.5000      ZONE CHG TIP/TOE =       5.7373E-03
            ZONE MIXING =           0.0000           ZONE MIXING =           0.0000

              TOTAL OUT =   158717248.0000             TOTAL OUT =           0.1488

               IN - OUT =    -2863552.0000              IN - OUT =       3.6040E-03

    PERCENT DISCREPANCY =          -1.82     PERCENT DISCREPANCY =           2.39


 HEAD WILL BE SAVED ON UNIT   37 AT END OF TIME STEP   76, STRESS PERIOD    2

 DRAWDOWN WILL BE SAVED ON UNIT   38 AT END OF TIME STEP   76, STRESS PERIOD    2
1
  VOLUMETRIC BUDGET FOR ENTIRE MODEL AT END OF TIME STEP   76, STRESS PERIOD   2
  ------------------------------------------------------------------------------

     CUMULATIVE VOLUMES      L**3       RATES FOR THIS TIME STEP      L**3/T
     ------------------                 ------------------------

           IN:                                      IN:
           ---                                      ---
             STORAGE =    84889664.0000               STORAGE =       3.9938E-02
       CONSTANT HEAD =           0.0000         CONSTANT HEAD =           0.0000
               WELLS =           0.0000                 WELLS =           0.0000
       RIVER LEAKAGE =   159243168.0000         RIVER LEAKAGE =       3.6000E-02
                  ET =           0.0000                    ET =           0.0000
     HEAD DEP BOUNDS =   118551176.0000       HEAD DEP BOUNDS =           0.1301
            RECHARGE =   643198528.0000              RECHARGE =           0.1691
          SWIADDTOCH =           0.0000            SWIADDTOCH =           0.0000

            TOTAL IN =  1005882496.0000              TOTAL IN =           0.3751

          OUT:                                     OUT:
          ----                                     ----
             STORAGE =       92418.9453               STORAGE =       2.6799E-04
       CONSTANT HEAD =           0.0000         CONSTANT HEAD =           0.0000
               WELLS =   461119360.0000                 WELLS =           0.3740
       RIVER LEAKAGE =    21630804.0000         RIVER LEAKAGE =           0.0000
                  ET =   166413648.0000                    ET =           0.0000
     HEAD DEP BOUNDS =   356638752.0000       HEAD DEP BOUNDS =       8.7660E-04
            RECHARGE =           0.0000              RECHARGE =           0.0000
          SWIADDTOCH =           0.0000            SWIADDTOCH =           0.0000

           TOTAL OUT =  1005895040.0000             TOTAL OUT =           0.3751

            IN - OUT =      -12544.0000              IN - OUT =           0.0000

 PERCENT DISCREPANCY =          -0.00     PERCENT DISCREPANCY =           0.00






         TIME SUMMARY AT END OF TIME STEP   76 IN STRESS PERIOD    2
                    SECONDS     MINUTES      HOURS       DAYS        YEARS
                    -----------------------------------------------------------
   TIME STEP LENGTH 1.57680E+07 2.62800E+05  4380.0      182.50     0.49966    
 STRESS PERIOD TIME 1.19837E+09 1.99728E+07 3.32880E+05  13870.      37.974    
         TOTAL TIME 4.35197E+09 7.25329E+07 1.20888E+06  50370.      137.91    
1
 
 SOLVING FOR HEAD 

 CELL CONVERSIONS FOR ITER.=  2  LAYER=  2  STEP= 77  PERIOD=   2   (ROW,COL)
    DRY( 56, 32)   
     7 CALLS TO PCG ROUTINE FOR TIME STEP  77 IN STRESS PERIOD    2
    19 TOTAL ITERATIONS

 MAXIMUM HEAD CHANGE FOR EACH ITERATION (1 INDICATES THE FIRST INNER ITERATION):

    HEAD CHANGE    HEAD CHANGE    HEAD CHANGE    HEAD CHANGE    HEAD CHANGE 
   LAYER,ROW,COL  LAYER,ROW,COL  LAYER,ROW,COL  LAYER,ROW,COL  LAYER,ROW,COL
 ---------------------------------------------------------------------------
  1 -0.1881      0 -0.6728E-01  0 -0.1317E-01  0 -0.4003E-02  0  0.1550E-02
   (  1, 17, 11)  (  2, 16, 12)  (  2, 17, 10)  (  1, 18, 11)  (  2,  5, 11)
  0 -0.5034E-03  1  0.2316E-01  0  0.8850E-02  0  0.2119E-02  0  0.5434E-03
   (  2,  5, 11)  (  2, 55, 33)  (  2, 55, 33)  (  2, 55, 33)  (  2, 55, 33)
  1 -0.1137E-01  0 -0.5117E-03  1  0.3149E-02  0  0.2153E-03  1 -0.1441E-02
   (  2, 55, 33)  (  2, 55, 33)  (  2, 55, 33)  (  2, 55, 33)  (  2, 56, 31)
  0 -0.7607E-04  1  0.1058E-02  0  0.5312E-04  1 -0.7773E-03
   (  2, 56, 31)  (  2, 56, 31)  (  2, 56, 31)  (  2, 56, 31)

 MAXIMUM RESIDUAL FOR EACH ITERATION (1 INDICATES THE FIRST INNER ITERATION):

    RESIDUAL       RESIDUAL       RESIDUAL       RESIDUAL       RESIDUAL    
   LAYER,ROW,COL  LAYER,ROW,COL  LAYER,ROW,COL  LAYER,ROW,COL  LAYER,ROW,COL
 ---------------------------------------------------------------------------
  1 -0.4072E-03  0 -0.1423E-03  0 -0.4524E-04  0  0.1440E-04  0  0.4448E-05
   (  2, 17, 11)  (  2, 17, 11)  (  1, 24,  6)  (  1, 21, 10)  (  1, 21, 10)
  0  0.1454E-05  1 -0.5630E-05  0  0.1749E-05  0  0.5917E-06  0  0.1289E-06
   (  2, 18, 10)  (  2, 18, 11)  (  2, 12, 21)  (  2, 17, 10)  (  2, 18, 11)
  1 -0.5474E-06  0 -0.1378E-06  1  0.1694E-06  0  0.6924E-07  1  0.6458E-07
   (  2, 18, 11)  (  2, 12, 21)  (  2,  5, 11)  (  2, 12, 21)  (  2,  5, 11)
  0 -0.3682E-07  1  0.5243E-07  0  0.3247E-07  1 -0.4200E-07
   (  2, 54, 32)  (  2, 54, 32)  (  2, 54, 32)  (  2, 54, 32)



 OUTPUT CONTROL FOR STRESS PERIOD    2   TIME STEP   77
    SAVE HEAD FOR ALL LAYERS
    SAVE DRAWDOWN FOR ALL LAYERS
    SAVE BUDGET
    PRINT BUDGET
 UBDSV1 SAVING "         STORAGE" ON UNIT   9 AT TIME STEP 77, STRESS PERIOD   2
 UBDSV2 SAVING "   CONSTANT HEAD" ON UNIT   9 AT TIME STEP 77, STRESS PERIOD   2
 UBDSV1 SAVING "FLOW RIGHT FACE " ON UNIT   9 AT TIME STEP 77, STRESS PERIOD   2
 UBDSV1 SAVING "FLOW FRONT FACE " ON UNIT   9 AT TIME STEP 77, STRESS PERIOD   2
 UBDSV1 SAVING "FLOW LOWER FACE " ON UNIT   9 AT TIME STEP 77, STRESS PERIOD   2
 UBDSV4 SAVING "           WELLS" ON UNIT   9 AT TIME STEP 77, STRESS PERIOD   2
 UBDSV4 SAVING "   RIVER LEAKAGE" ON UNIT   9 AT TIME STEP 77, STRESS PERIOD   2
 UBDSV3 SAVING "              ET" ON UNIT   9 AT TIME STEP 77, STRESS PERIOD   2
 UBDSV4 SAVING " HEAD DEP BOUNDS" ON UNIT   9 AT TIME STEP 77, STRESS PERIOD   2
 UBDSV3 SAVING "        RECHARGE" ON UNIT   9 AT TIME STEP 77, STRESS PERIOD   2
 SOLVING FOR ZETA FOR LAYER     1 ZONE     2
     2 CALLS TO PCG ROUTINE FOR TIME STEP  77 IN STRESS PERIOD    2
     4 TOTAL ITERATIONS

 MAXIMUM HEAD CHANGE FOR EACH ITERATION (1 INDICATES THE FIRST INNER ITERATION):

    HEAD CHANGE    HEAD CHANGE    HEAD CHANGE    HEAD CHANGE    HEAD CHANGE 
   LAYER,ROW,COL  LAYER,ROW,COL  LAYER,ROW,COL  LAYER,ROW,COL  LAYER,ROW,COL
 ---------------------------------------------------------------------------
  1   18.81      0  0.1004      0  0.4669E-03  1 -0.3011E-05
   (  1, 16,  9)  (  1, 15, 10)  (  1, 16,  9)  (  1, 16, 11)

 MAXIMUM RESIDUAL FOR EACH ITERATION (1 INDICATES THE FIRST INNER ITERATION):

    RESIDUAL       RESIDUAL       RESIDUAL       RESIDUAL       RESIDUAL    
   LAYER,ROW,COL  LAYER,ROW,COL  LAYER,ROW,COL  LAYER,ROW,COL  LAYER,ROW,COL
 ---------------------------------------------------------------------------
  1 -0.3168E-04  0 -0.1624E-06  0  0.8877E-09  1 -0.8187E-11
   (  1, 15, 10)  (  1, 16,  9)  (  1, 16, 11)  (  1, 24,  7)


 SOLVING FOR ZETA FOR LAYER     2 ZONE     2
     2 CALLS TO PCG ROUTINE FOR TIME STEP  77 IN STRESS PERIOD    2
     4 TOTAL ITERATIONS

 MAXIMUM HEAD CHANGE FOR EACH ITERATION (1 INDICATES THE FIRST INNER ITERATION):

    HEAD CHANGE    HEAD CHANGE    HEAD CHANGE    HEAD CHANGE    HEAD CHANGE 
   LAYER,ROW,COL  LAYER,ROW,COL  LAYER,ROW,COL  LAYER,ROW,COL  LAYER,ROW,COL
 ---------------------------------------------------------------------------
  1   6.029      0  0.5348E-01  0  0.3785E-03  1  0.5817E-05
   (  1, 17, 11)  (  1, 17, 12)  (  1, 26,  7)  (  1, 28,  5)

 MAXIMUM RESIDUAL FOR EACH ITERATION (1 INDICATES THE FIRST INNER ITERATION):

    RESIDUAL       RESIDUAL       RESIDUAL       RESIDUAL       RESIDUAL    
   LAYER,ROW,COL  LAYER,ROW,COL  LAYER,ROW,COL  LAYER,ROW,COL  LAYER,ROW,COL
 ---------------------------------------------------------------------------
  1 -0.1489E-04  0 -0.1158E-06  0 -0.2407E-08  1 -0.6150E-10
   (  1, 17, 12)  (  1,  6,  9)  (  1, 28,  5)  (  1, 29,  4)


 UBUDSV SAVING "      ZETASRF  1" ON UNIT170 AT TIME STEP 77, STRESS PERIOD    2


                      VOLUMETRIC SWI ZONE BUDGET FOR ENTIRE MODEL
                     AT END OF TIME STEP   77 IN STRESS PERIOD   2
                                      ZONE     1
  -----------------------------------------------------------------------------------

        CUMULATIVE VOLUMES      L**3       RATES FOR THIS TIME STEP      L**3/T
        ------------------                 ------------------------

              IN:                                      IN:
              ---                                      ---
             BOUNDARIES =   765989440.0000            BOUNDARIES =           0.1887
          CONSTANT HEAD =           0.0000         CONSTANT HEAD =           0.0000
            ZONE CHANGE =   197263232.0000           ZONE CHANGE =       5.2218E-02
       ZONE CHG TIP/TOE =    10959312.0000      ZONE CHG TIP/TOE =       6.4488E-03
            ZONE MIXING =           0.0000           ZONE MIXING =           0.0000

               TOTAL IN =   974211968.0000              TOTAL IN =           0.2474

             OUT:                                     OUT:
             ----                                     ----
             BOUNDARIES =   870320512.0000            BOUNDARIES =           0.2579
          CONSTANT HEAD =           0.0000         CONSTANT HEAD =           0.0000
            ZONE CHANGE =    31574786.0000           ZONE CHANGE =       1.0485E-02
       ZONE CHG TIP/TOE =     8612360.0000      ZONE CHG TIP/TOE =       3.5595E-03
            ZONE MIXING =     1046911.3750           ZONE MIXING =           0.0000

              TOTAL OUT =   911554560.0000             TOTAL OUT =           0.2719

               IN - OUT =    62657408.0000              IN - OUT =      -2.4496E-02

    PERCENT DISCREPANCY =           6.65     PERCENT DISCREPANCY =          -9.43



                      VOLUMETRIC SWI ZONE BUDGET FOR ENTIRE MODEL
                     AT END OF TIME STEP   77 IN STRESS PERIOD   2
                                      ZONE     2
  -----------------------------------------------------------------------------------

        CUMULATIVE VOLUMES      L**3       RATES FOR THIS TIME STEP      L**3/T
        ------------------                 ------------------------

              IN:                                      IN:
              ---                                      ---
             BOUNDARIES =   110235024.0000            BOUNDARIES =           0.1270
          CONSTANT HEAD =           0.0000         CONSTANT HEAD =           0.0000
            ZONE CHANGE =    26937366.0000           ZONE CHANGE =       8.8366E-03
       ZONE CHG TIP/TOE =    20239428.0000      ZONE CHG TIP/TOE =       2.9342E-02
            ZONE MIXING =     1046911.3750           ZONE MIXING =           0.0000

               TOTAL IN =   158458720.0000              TOTAL IN =           0.1652

             OUT:                                     OUT:
             ----                                     ----
             BOUNDARIES =    96785760.0000            BOUNDARIES =       9.6956E-02
          CONSTANT HEAD =           0.0000         CONSTANT HEAD =           0.0000
            ZONE CHANGE =    57330152.0000           ZONE CHANGE =       4.5874E-02
       ZONE CHG TIP/TOE =     6922470.5000      ZONE CHG TIP/TOE =       4.3745E-03
            ZONE MIXING =           0.0000           ZONE MIXING =           0.0000

              TOTAL OUT =   161038384.0000             TOTAL OUT =           0.1472

               IN - OUT =    -2579664.0000              IN - OUT =       1.8006E-02

    PERCENT DISCREPANCY =          -1.61     PERCENT DISCREPANCY =          11.53


 HEAD WILL BE SAVED ON UNIT   37 AT END OF TIME STEP   77, STRESS PERIOD    2

 DRAWDOWN WILL BE SAVED ON UNIT   38 AT END OF TIME STEP   77, STRESS PERIOD    2
1
  VOLUMETRIC BUDGET FOR ENTIRE MODEL AT END OF TIME STEP   77, STRESS PERIOD   2
  ------------------------------------------------------------------------------

     CUMULATIVE VOLUMES      L**3       RATES FOR THIS TIME STEP      L**3/T
     ------------------                 ------------------------

           IN:                                      IN:
           ---                                      ---
             STORAGE =    85506488.0000               STORAGE =       3.9119E-02
       CONSTANT HEAD =           0.0000         CONSTANT HEAD =           0.0000
               WELLS =           0.0000                 WELLS =           0.0000
       RIVER LEAKAGE =   159810816.0000         RIVER LEAKAGE =       3.6000E-02
                  ET =           0.0000                    ET =           0.0000
     HEAD DEP BOUNDS =   120610528.0000       HEAD DEP BOUNDS =           0.1306
            RECHARGE =   645865536.0000              RECHARGE =           0.1691
          SWIADDTOCH =           0.0000            SWIADDTOCH =           0.0000

            TOTAL IN =  1011793408.0000              TOTAL IN =           0.3749

          OUT:                                     OUT:
          ----                                     ----
             STORAGE =       93615.0234               STORAGE =       7.5855E-05
       CONSTANT HEAD =           0.0000         CONSTANT HEAD =           0.0000
               WELLS =   467016576.0000                 WELLS =           0.3740
       RIVER LEAKAGE =    21630804.0000         RIVER LEAKAGE =           0.0000
                  ET =   166413648.0000                    ET =           0.0000
     HEAD DEP BOUNDS =   356651136.0000       HEAD DEP BOUNDS =       7.8620E-04
            RECHARGE =           0.0000              RECHARGE =           0.0000
          SWIADDTOCH =           0.0000            SWIADDTOCH =           0.0000

           TOTAL OUT =  1011805760.0000             TOTAL OUT =           0.3749

            IN - OUT =      -12352.0000              IN - OUT =           0.0000

 PERCENT DISCREPANCY =          -0.00     PERCENT DISCREPANCY =           0.00






         TIME SUMMARY AT END OF TIME STEP   77 IN STRESS PERIOD    2
                    SECONDS     MINUTES      HOURS       DAYS        YEARS
                    -----------------------------------------------------------
   TIME STEP LENGTH 1.57680E+07 2.62800E+05  4380.0      182.50     0.49966    
 STRESS PERIOD TIME 1.21414E+09 2.02356E+07 3.37260E+05  14053.      38.474    
         TOTAL TIME 4.36774E+09 7.27957E+07 1.21326E+06  50553.      138.41    
1
 
 SOLVING FOR HEAD 
     7 CALLS TO PCG ROUTINE FOR TIME STEP  78 IN STRESS PERIOD    2
    19 TOTAL ITERATIONS

 MAXIMUM HEAD CHANGE FOR EACH ITERATION (1 INDICATES THE FIRST INNER ITERATION):

    HEAD CHANGE    HEAD CHANGE    HEAD CHANGE    HEAD CHANGE    HEAD CHANGE 
   LAYER,ROW,COL  LAYER,ROW,COL  LAYER,ROW,COL  LAYER,ROW,COL  LAYER,ROW,COL
 ---------------------------------------------------------------------------
  1 -0.2466      0  0.4986E-01  0 -0.1280E-01  0 -0.3692E-02  0  0.1073E-02
   (  1, 15, 10)  (  2, 21, 10)  (  2, 21,  9)  (  1, 18, 12)  (  2,  5, 13)
  0 -0.3267E-03  1  0.2505E-01  0  0.8669E-02  0  0.2039E-02  0  0.5139E-03
   (  2, 19,  9)  (  2, 55, 33)  (  2, 55, 33)  (  2, 55, 33)  (  2, 55, 33)
  1 -0.1607E-01  0 -0.4845E-03  1  0.6810E-02  0  0.2288E-03  1 -0.2797E-02
   (  2, 55, 33)  (  2, 55, 33)  (  2, 55, 33)  (  2, 55, 33)  (  2, 55, 33)
  0 -0.7799E-04  1  0.1049E-02  0  0.3626E-04  1 -0.7726E-03
   (  2, 55, 33)  (  2, 55, 33)  (  2, 55, 33)  (  2, 56, 31)

 MAXIMUM RESIDUAL FOR EACH ITERATION (1 INDICATES THE FIRST INNER ITERATION):

    RESIDUAL       RESIDUAL       RESIDUAL       RESIDUAL       RESIDUAL    
   LAYER,ROW,COL  LAYER,ROW,COL  LAYER,ROW,COL  LAYER,ROW,COL  LAYER,ROW,COL
 ---------------------------------------------------------------------------
  1 -0.3717E-03  0 -0.1075E-03  0 -0.3373E-04  0  0.1286E-04  0  0.3482E-05
   (  2, 21, 10)  (  1, 15, 10)  (  1, 15, 10)  (  2, 19, 11)  (  2, 16, 10)
  0 -0.1092E-05  1 -0.4606E-05  0  0.1645E-05  0  0.4769E-06  0 -0.1101E-06
   (  2, 20, 10)  (  2, 18, 11)  (  2, 12, 21)  (  2, 17, 10)  (  2, 17,  9)
  1 -0.5579E-06  0 -0.1402E-06  1 -0.1804E-06  0  0.9409E-07  1 -0.8062E-07
   (  2, 18, 11)  (  2, 12, 21)  (  2,  5, 11)  (  2, 53, 34)  (  2, 53, 34)
  0 -0.4586E-07  1 -0.4979E-07  0 -0.2305E-07  1 -0.3430E-07
   (  2, 53, 34)  (  2,  5, 11)  (  2, 55, 31)  (  2, 54, 32)



 OUTPUT CONTROL FOR STRESS PERIOD    2   TIME STEP   78
    SAVE HEAD FOR ALL LAYERS
    SAVE DRAWDOWN FOR ALL LAYERS
    SAVE BUDGET
    PRINT BUDGET
 UBDSV1 SAVING "         STORAGE" ON UNIT   9 AT TIME STEP 78, STRESS PERIOD   2
 UBDSV2 SAVING "   CONSTANT HEAD" ON UNIT   9 AT TIME STEP 78, STRESS PERIOD   2
 UBDSV1 SAVING "FLOW RIGHT FACE " ON UNIT   9 AT TIME STEP 78, STRESS PERIOD   2
 UBDSV1 SAVING "FLOW FRONT FACE " ON UNIT   9 AT TIME STEP 78, STRESS PERIOD   2
 UBDSV1 SAVING "FLOW LOWER FACE " ON UNIT   9 AT TIME STEP 78, STRESS PERIOD   2
 UBDSV4 SAVING "           WELLS" ON UNIT   9 AT TIME STEP 78, STRESS PERIOD   2
 UBDSV4 SAVING "   RIVER LEAKAGE" ON UNIT   9 AT TIME STEP 78, STRESS PERIOD   2
 UBDSV3 SAVING "              ET" ON UNIT   9 AT TIME STEP 78, STRESS PERIOD   2
 UBDSV4 SAVING " HEAD DEP BOUNDS" ON UNIT   9 AT TIME STEP 78, STRESS PERIOD   2
 UBDSV3 SAVING "        RECHARGE" ON UNIT   9 AT TIME STEP 78, STRESS PERIOD   2
 SOLVING FOR ZETA FOR LAYER     1 ZONE     2
     2 CALLS TO PCG ROUTINE FOR TIME STEP  78 IN STRESS PERIOD    2
     4 TOTAL ITERATIONS

 MAXIMUM HEAD CHANGE FOR EACH ITERATION (1 INDICATES THE FIRST INNER ITERATION):

    HEAD CHANGE    HEAD CHANGE    HEAD CHANGE    HEAD CHANGE    HEAD CHANGE 
   LAYER,ROW,COL  LAYER,ROW,COL  LAYER,ROW,COL  LAYER,ROW,COL  LAYER,ROW,COL
 ---------------------------------------------------------------------------
  1   14.89      0  0.5599E-01  0  0.3229E-03  1  0.3695E-05
   (  1, 19, 10)  (  1, 23,  8)  (  1, 24,  7)  (  1, 25,  6)

 MAXIMUM RESIDUAL FOR EACH ITERATION (1 INDICATES THE FIRST INNER ITERATION):

    RESIDUAL       RESIDUAL       RESIDUAL       RESIDUAL       RESIDUAL    
   LAYER,ROW,COL  LAYER,ROW,COL  LAYER,ROW,COL  LAYER,ROW,COL  LAYER,ROW,COL
 ---------------------------------------------------------------------------
  1  0.2189E-04  0 -0.9662E-07  0 -0.1225E-08  1 -0.1120E-10
   (  1, 22,  7)  (  1, 24,  7)  (  1, 25,  6)  (  1, 24,  7)


 SOLVING FOR ZETA FOR LAYER     2 ZONE     2
     2 CALLS TO PCG ROUTINE FOR TIME STEP  78 IN STRESS PERIOD    2
     4 TOTAL ITERATIONS

 MAXIMUM HEAD CHANGE FOR EACH ITERATION (1 INDICATES THE FIRST INNER ITERATION):

    HEAD CHANGE    HEAD CHANGE    HEAD CHANGE    HEAD CHANGE    HEAD CHANGE 
   LAYER,ROW,COL  LAYER,ROW,COL  LAYER,ROW,COL  LAYER,ROW,COL  LAYER,ROW,COL
 ---------------------------------------------------------------------------
  1  -5.292      0  0.2582E-01  0  0.3443E-03  1  0.5036E-05
   (  1, 18, 12)  (  1, 25,  8)  (  1,  6,  9)  (  1, 28,  5)

 MAXIMUM RESIDUAL FOR EACH ITERATION (1 INDICATES THE FIRST INNER ITERATION):

    RESIDUAL       RESIDUAL       RESIDUAL       RESIDUAL       RESIDUAL    
   LAYER,ROW,COL  LAYER,ROW,COL  LAYER,ROW,COL  LAYER,ROW,COL  LAYER,ROW,COL
 ---------------------------------------------------------------------------
  1 -0.8239E-05  0 -0.1188E-06  0 -0.2069E-08  1 -0.5884E-10
   (  1, 25,  8)  (  1,  6,  9)  (  1, 28,  5)  (  1, 29,  4)


 UBUDSV SAVING "      ZETASRF  1" ON UNIT170 AT TIME STEP 78, STRESS PERIOD    2


                      VOLUMETRIC SWI ZONE BUDGET FOR ENTIRE MODEL
                     AT END OF TIME STEP   78 IN STRESS PERIOD   2
                                      ZONE     1
  -----------------------------------------------------------------------------------

        CUMULATIVE VOLUMES      L**3       RATES FOR THIS TIME STEP      L**3/T
        ------------------                 ------------------------

              IN:                                      IN:
              ---                                      ---
             BOUNDARIES =   768951168.0000            BOUNDARIES =           0.1878
          CONSTANT HEAD =           0.0000         CONSTANT HEAD =           0.0000
            ZONE CHANGE =   198101120.0000           ZONE CHANGE =       5.3138E-02
       ZONE CHG TIP/TOE =    11110357.0000      ZONE CHG TIP/TOE =       9.5792E-03
            ZONE MIXING =           0.0000           ZONE MIXING =           0.0000

               TOTAL IN =   978162624.0000              TOTAL IN =           0.2505

             OUT:                                     OUT:
             ----                                     ----
             BOUNDARIES =   874002880.0000            BOUNDARIES =           0.2335
          CONSTANT HEAD =           0.0000         CONSTANT HEAD =           0.0000
            ZONE CHANGE =    31795046.0000           ZONE CHANGE =       1.3969E-02
       ZONE CHG TIP/TOE =     8750080.0000      ZONE CHG TIP/TOE =       8.7341E-03
            ZONE MIXING =     1046911.3750           ZONE MIXING =           0.0000

              TOTAL OUT =   915594944.0000             TOTAL OUT =           0.2562

               IN - OUT =    62567680.0000              IN - OUT =      -5.6906E-03

    PERCENT DISCREPANCY =           6.61     PERCENT DISCREPANCY =          -2.25



                      VOLUMETRIC SWI ZONE BUDGET FOR ENTIRE MODEL
                     AT END OF TIME STEP   78 IN STRESS PERIOD   2
                                      ZONE     2
  -----------------------------------------------------------------------------------

        CUMULATIVE VOLUMES      L**3       RATES FOR THIS TIME STEP      L**3/T
        ------------------                 ------------------------

              IN:                                      IN:
              ---                                      ---
             BOUNDARIES =   112260816.0000            BOUNDARIES =           0.1285
          CONSTANT HEAD =           0.0000         CONSTANT HEAD =           0.0000
            ZONE CHANGE =    27061718.0000           ZONE CHANGE =       7.8864E-03
       ZONE CHG TIP/TOE =    20482124.0000      ZONE CHG TIP/TOE =       1.5392E-02
            ZONE MIXING =     1046911.3750           ZONE MIXING =           0.0000

               TOTAL IN =   160851568.0000              TOTAL IN =           0.1518

             OUT:                                     OUT:
             ----                                     ----
             BOUNDARIES =    98696760.0000            BOUNDARIES =           0.1212
          CONSTANT HEAD =           0.0000         CONSTANT HEAD =           0.0000
            ZONE CHANGE =    57774984.0000           ZONE CHANGE =       2.8211E-02
       ZONE CHG TIP/TOE =     6970470.5000      ZONE CHG TIP/TOE =       3.0441E-03
            ZONE MIXING =           0.0000           ZONE MIXING =           0.0000

              TOTAL OUT =   163442208.0000             TOTAL OUT =           0.1525

               IN - OUT =    -2590640.0000              IN - OUT =      -6.9705E-04

    PERCENT DISCREPANCY =          -1.60     PERCENT DISCREPANCY =          -0.46


 HEAD WILL BE SAVED ON UNIT   37 AT END OF TIME STEP   78, STRESS PERIOD    2

 DRAWDOWN WILL BE SAVED ON UNIT   38 AT END OF TIME STEP   78, STRESS PERIOD    2
1
  VOLUMETRIC BUDGET FOR ENTIRE MODEL AT END OF TIME STEP   78, STRESS PERIOD   2
  ------------------------------------------------------------------------------

     CUMULATIVE VOLUMES      L**3       RATES FOR THIS TIME STEP      L**3/T
     ------------------                 ------------------------

           IN:                                      IN:
           ---                                      ---
             STORAGE =    86113576.0000               STORAGE =       3.8501E-02
       CONSTANT HEAD =           0.0000         CONSTANT HEAD =           0.0000
               WELLS =           0.0000                 WELLS =           0.0000
       RIVER LEAKAGE =   160378464.0000         RIVER LEAKAGE =       3.6000E-02
                  ET =           0.0000                    ET =           0.0000
     HEAD DEP BOUNDS =   122678368.0000       HEAD DEP BOUNDS =           0.1311
            RECHARGE =   648532544.0000              RECHARGE =           0.1691
          SWIADDTOCH =           0.0000            SWIADDTOCH =           0.0000

            TOTAL IN =  1017702912.0000              TOTAL IN =           0.3748

          OUT:                                     OUT:
          ----                                     ----
             STORAGE =       94807.7969               STORAGE =       7.5645E-05
       CONSTANT HEAD =           0.0000         CONSTANT HEAD =           0.0000
               WELLS =   472913792.0000                 WELLS =           0.3740
       RIVER LEAKAGE =    21630804.0000         RIVER LEAKAGE =           0.0000
                  ET =   166413648.0000                    ET =           0.0000
     HEAD DEP BOUNDS =   356662272.0000       HEAD DEP BOUNDS =       7.0714E-04
            RECHARGE =           0.0000              RECHARGE =           0.0000
          SWIADDTOCH =           0.0000            SWIADDTOCH =           0.0000

           TOTAL OUT =  1017715328.0000             TOTAL OUT =           0.3748

            IN - OUT =      -12416.0000              IN - OUT =           0.0000

 PERCENT DISCREPANCY =          -0.00     PERCENT DISCREPANCY =           0.00






         TIME SUMMARY AT END OF TIME STEP   78 IN STRESS PERIOD    2
                    SECONDS     MINUTES      HOURS       DAYS        YEARS
                    -----------------------------------------------------------
   TIME STEP LENGTH 1.57680E+07 2.62800E+05  4380.0      182.50     0.49966    
 STRESS PERIOD TIME 1.22990E+09 2.04984E+07 3.41640E+05  14235.      38.973    
         TOTAL TIME 4.38351E+09 7.30585E+07 1.21764E+06  50735.      138.91    
1
 
 SOLVING FOR HEAD 

 CELL CONVERSIONS FOR ITER.=  2  LAYER=  1  STEP= 79  PERIOD=   2   (ROW,COL)
    DRY( 37, 31)   DRY( 43, 24)   
     8 CALLS TO PCG ROUTINE FOR TIME STEP  79 IN STRESS PERIOD    2
    21 TOTAL ITERATIONS

 MAXIMUM HEAD CHANGE FOR EACH ITERATION (1 INDICATES THE FIRST INNER ITERATION):

    HEAD CHANGE    HEAD CHANGE    HEAD CHANGE    HEAD CHANGE    HEAD CHANGE 
   LAYER,ROW,COL  LAYER,ROW,COL  LAYER,ROW,COL  LAYER,ROW,COL  LAYER,ROW,COL
 ---------------------------------------------------------------------------
  1 -0.2604      0 -0.9428E-01  0  0.2319E-01  0 -0.5186E-02  0  0.1649E-02
   (  1, 22,  9)  (  2, 17, 10)  (  1, 18, 12)  (  2,  9, 10)  (  2,  8,  9)
  0  0.8060E-03  1 -0.3787E-01  0  0.9382E-02  0  0.2052E-02  0  0.5957E-03
   (  2,  5, 11)  (  2, 43, 24)  (  2, 55, 33)  (  2, 55, 33)  (  2, 55, 33)
  1 -0.1882E-01  0 -0.7336E-03  1  0.1039E-01  0  0.3106E-03  1 -0.5783E-02
   (  2, 55, 33)  (  2, 55, 33)  (  2, 55, 33)  (  2, 55, 33)  (  2, 55, 33)
  0 -0.1232E-03  1  0.3172E-02  0  0.6235E-04  1 -0.1739E-02  0 -0.2989E-04
   (  2, 55, 33)  (  2, 55, 33)  (  2, 55, 33)  (  2, 55, 33)  (  2, 55, 33)
  1  0.9393E-03
   (  2, 55, 33)

 MAXIMUM RESIDUAL FOR EACH ITERATION (1 INDICATES THE FIRST INNER ITERATION):

    RESIDUAL       RESIDUAL       RESIDUAL       RESIDUAL       RESIDUAL    
   LAYER,ROW,COL  LAYER,ROW,COL  LAYER,ROW,COL  LAYER,ROW,COL  LAYER,ROW,COL
 ---------------------------------------------------------------------------
  1 -0.6359E-03  0 -0.2224E-03  0 -0.4937E-04  0  0.2541E-04  0  0.8035E-05
   (  2, 21,  8)  (  2, 21,  8)  (  2, 20,  9)  (  2, 20, 10)  (  2, 20, 10)
  0 -0.2538E-05  1  0.2322E-04  0  0.8001E-05  0  0.2077E-05  0  0.5771E-06
   (  1, 20, 10)  (  2, 37, 31)  (  2, 44, 23)  (  2, 44, 23)  (  2, 41, 26)
  1 -0.6844E-06  0 -0.2278E-06  1 -0.3759E-06  0  0.1264E-06  1 -0.1512E-06
   (  2,  5, 11)  (  2, 12, 21)  (  2,  5, 11)  (  2, 53, 34)  (  2,  5, 11)
  0 -0.7511E-07  1 -0.8700E-07  0  0.4418E-07  1 -0.4167E-07  0 -0.2357E-07
   (  2, 53, 34)  (  2,  5, 11)  (  2, 53, 34)  (  2, 53, 34)  (  2, 53, 34)
  1 -0.2492E-07
   (  2,  5, 11)



 OUTPUT CONTROL FOR STRESS PERIOD    2   TIME STEP   79
    SAVE HEAD FOR ALL LAYERS
    SAVE DRAWDOWN FOR ALL LAYERS
    SAVE BUDGET
    PRINT BUDGET
 UBDSV1 SAVING "         STORAGE" ON UNIT   9 AT TIME STEP 79, STRESS PERIOD   2
 UBDSV2 SAVING "   CONSTANT HEAD" ON UNIT   9 AT TIME STEP 79, STRESS PERIOD   2
 UBDSV1 SAVING "FLOW RIGHT FACE " ON UNIT   9 AT TIME STEP 79, STRESS PERIOD   2
 UBDSV1 SAVING "FLOW FRONT FACE " ON UNIT   9 AT TIME STEP 79, STRESS PERIOD   2
 UBDSV1 SAVING "FLOW LOWER FACE " ON UNIT   9 AT TIME STEP 79, STRESS PERIOD   2
 UBDSV4 SAVING "           WELLS" ON UNIT   9 AT TIME STEP 79, STRESS PERIOD   2
 UBDSV4 SAVING "   RIVER LEAKAGE" ON UNIT   9 AT TIME STEP 79, STRESS PERIOD   2
 UBDSV3 SAVING "              ET" ON UNIT   9 AT TIME STEP 79, STRESS PERIOD   2
 UBDSV4 SAVING " HEAD DEP BOUNDS" ON UNIT   9 AT TIME STEP 79, STRESS PERIOD   2
 UBDSV3 SAVING "        RECHARGE" ON UNIT   9 AT TIME STEP 79, STRESS PERIOD   2
 SOLVING FOR ZETA FOR LAYER     1 ZONE     2
     2 CALLS TO PCG ROUTINE FOR TIME STEP  79 IN STRESS PERIOD    2
     4 TOTAL ITERATIONS

 MAXIMUM HEAD CHANGE FOR EACH ITERATION (1 INDICATES THE FIRST INNER ITERATION):

    HEAD CHANGE    HEAD CHANGE    HEAD CHANGE    HEAD CHANGE    HEAD CHANGE 
   LAYER,ROW,COL  LAYER,ROW,COL  LAYER,ROW,COL  LAYER,ROW,COL  LAYER,ROW,COL
 ---------------------------------------------------------------------------
  1   12.02      0  0.2685E-01  0  0.1553E-03  1  0.1406E-05
   (  1, 21,  7)  (  1, 13,  8)  (  1, 12,  9)  (  1, 24,  7)

 MAXIMUM RESIDUAL FOR EACH ITERATION (1 INDICATES THE FIRST INNER ITERATION):

    RESIDUAL       RESIDUAL       RESIDUAL       RESIDUAL       RESIDUAL    
   LAYER,ROW,COL  LAYER,ROW,COL  LAYER,ROW,COL  LAYER,ROW,COL  LAYER,ROW,COL
 ---------------------------------------------------------------------------
  1 -0.7296E-05  0  0.4669E-07  0 -0.4044E-09  1 -0.5284E-11
   (  1, 13,  8)  (  1, 23,  5)  (  1, 24,  7)  (  1, 25,  6)


 SOLVING FOR ZETA FOR LAYER     2 ZONE     2
     2 CALLS TO PCG ROUTINE FOR TIME STEP  79 IN STRESS PERIOD    2
     4 TOTAL ITERATIONS

 MAXIMUM HEAD CHANGE FOR EACH ITERATION (1 INDICATES THE FIRST INNER ITERATION):

    HEAD CHANGE    HEAD CHANGE    HEAD CHANGE    HEAD CHANGE    HEAD CHANGE 
   LAYER,ROW,COL  LAYER,ROW,COL  LAYER,ROW,COL  LAYER,ROW,COL  LAYER,ROW,COL
 ---------------------------------------------------------------------------
  1   6.664      0 -0.2854E-01  0  0.3965E-03  1  0.6876E-05
   (  1, 17, 11)  (  1, 18, 11)  (  1,  6,  9)  (  1, 28,  5)

 MAXIMUM RESIDUAL FOR EACH ITERATION (1 INDICATES THE FIRST INNER ITERATION):

    RESIDUAL       RESIDUAL       RESIDUAL       RESIDUAL       RESIDUAL    
   LAYER,ROW,COL  LAYER,ROW,COL  LAYER,ROW,COL  LAYER,ROW,COL  LAYER,ROW,COL
 ---------------------------------------------------------------------------
  1  0.9502E-05  0 -0.1327E-06  0 -0.2878E-08  1 -0.7155E-10
   (  1, 18, 11)  (  1,  6,  9)  (  1, 28,  5)  (  1, 29,  4)


 UBUDSV SAVING "      ZETASRF  1" ON UNIT170 AT TIME STEP 79, STRESS PERIOD    2


                      VOLUMETRIC SWI ZONE BUDGET FOR ENTIRE MODEL
                     AT END OF TIME STEP   79 IN STRESS PERIOD   2
                                      ZONE     1
  -----------------------------------------------------------------------------------

        CUMULATIVE VOLUMES      L**3       RATES FOR THIS TIME STEP      L**3/T
        ------------------                 ------------------------

              IN:                                      IN:
              ---                                      ---
             BOUNDARIES =   771908416.0000            BOUNDARIES =           0.1875
          CONSTANT HEAD =           0.0000         CONSTANT HEAD =           0.0000
            ZONE CHANGE =   198985872.0000           ZONE CHANGE =       5.6110E-02
       ZONE CHG TIP/TOE =    11313375.0000      ZONE CHG TIP/TOE =       1.2875E-02
            ZONE MIXING =           0.0000           ZONE MIXING =           0.0000

               TOTAL IN =   982207680.0000              TOTAL IN =           0.2565

             OUT:                                     OUT:
             ----                                     ----
             BOUNDARIES =   877611200.0000            BOUNDARIES =           0.2288
          CONSTANT HEAD =           0.0000         CONSTANT HEAD =           0.0000
            ZONE CHANGE =    31961000.0000           ZONE CHANGE =       1.0525E-02
       ZONE CHG TIP/TOE =     8915188.0000      ZONE CHG TIP/TOE =       1.0471E-02
            ZONE MIXING =     1099185.5000           ZONE MIXING =       3.3152E-03

              TOTAL OUT =   919586560.0000             TOTAL OUT =           0.2531

               IN - OUT =    62621120.0000              IN - OUT =       3.3850E-03

    PERCENT DISCREPANCY =           6.59     PERCENT DISCREPANCY =           1.33



                      VOLUMETRIC SWI ZONE BUDGET FOR ENTIRE MODEL
                     AT END OF TIME STEP   79 IN STRESS PERIOD   2
                                      ZONE     2
  -----------------------------------------------------------------------------------

        CUMULATIVE VOLUMES      L**3       RATES FOR THIS TIME STEP      L**3/T
        ------------------                 ------------------------

              IN:                                      IN:
              ---                                      ---
             BOUNDARIES =   114292648.0000            BOUNDARIES =           0.1289
          CONSTANT HEAD =           0.0000         CONSTANT HEAD =           0.0000
            ZONE CHANGE =    27175098.0000           ZONE CHANGE =       7.1905E-03
       ZONE CHG TIP/TOE =    20703688.0000      ZONE CHG TIP/TOE =       1.4052E-02
            ZONE MIXING =     1099185.5000           ZONE MIXING =       3.3152E-03

               TOTAL IN =   163270624.0000              TOTAL IN =           0.1534

             OUT:                                     OUT:
             ----                                     ----
             BOUNDARIES =   100680600.0000            BOUNDARIES =           0.1258
          CONSTANT HEAD =           0.0000         CONSTANT HEAD =           0.0000
            ZONE CHANGE =    58215600.0000           ZONE CHANGE =       2.7944E-02
       ZONE CHG TIP/TOE =     7118696.5000      ZONE CHG TIP/TOE =       9.4004E-03
            ZONE MIXING =           0.0000           ZONE MIXING =           0.0000

              TOTAL OUT =   166014896.0000             TOTAL OUT =           0.1632

               IN - OUT =    -2744272.0000              IN - OUT =      -9.7429E-03

    PERCENT DISCREPANCY =          -1.67     PERCENT DISCREPANCY =          -6.16


 HEAD WILL BE SAVED ON UNIT   37 AT END OF TIME STEP   79, STRESS PERIOD    2

 DRAWDOWN WILL BE SAVED ON UNIT   38 AT END OF TIME STEP   79, STRESS PERIOD    2
1
  VOLUMETRIC BUDGET FOR ENTIRE MODEL AT END OF TIME STEP   79, STRESS PERIOD   2
  ------------------------------------------------------------------------------

     CUMULATIVE VOLUMES      L**3       RATES FOR THIS TIME STEP      L**3/T
     ------------------                 ------------------------

           IN:                                      IN:
           ---                                      ---
             STORAGE =    86720696.0000               STORAGE =       3.8503E-02
       CONSTANT HEAD =           0.0000         CONSTANT HEAD =           0.0000
               WELLS =           0.0000                 WELLS =           0.0000
       RIVER LEAKAGE =   160946112.0000         RIVER LEAKAGE =       3.6000E-02
                  ET =           0.0000                    ET =           0.0000
     HEAD DEP BOUNDS =   124753808.0000       HEAD DEP BOUNDS =           0.1316
            RECHARGE =   651193536.0000              RECHARGE =           0.1688
          SWIADDTOCH =           0.0000            SWIADDTOCH =           0.0000

            TOTAL IN =  1023614144.0000              TOTAL IN =           0.3749

          OUT:                                     OUT:
          ----                                     ----
             STORAGE =       98868.2109               STORAGE =       2.5751E-04
       CONSTANT HEAD =           0.0000         CONSTANT HEAD =           0.0000
               WELLS =   478811008.0000                 WELLS =           0.3740
       RIVER LEAKAGE =    21630804.0000         RIVER LEAKAGE =           0.0000
                  ET =   166413648.0000                    ET =           0.0000
     HEAD DEP BOUNDS =   356672192.0000       HEAD DEP BOUNDS =       6.2898E-04
            RECHARGE =           0.0000              RECHARGE =           0.0000
          SWIADDTOCH =           0.0000            SWIADDTOCH =           0.0000

           TOTAL OUT =  1023626560.0000             TOTAL OUT =           0.3749

            IN - OUT =      -12416.0000              IN - OUT =           0.0000

 PERCENT DISCREPANCY =          -0.00     PERCENT DISCREPANCY =           0.00






         TIME SUMMARY AT END OF TIME STEP   79 IN STRESS PERIOD    2
                    SECONDS     MINUTES      HOURS       DAYS        YEARS
                    -----------------------------------------------------------
   TIME STEP LENGTH 1.57680E+07 2.62800E+05  4380.0      182.50     0.49966    
 STRESS PERIOD TIME 1.24567E+09 2.07612E+07 3.46020E+05  14418.      39.473    
         TOTAL TIME 4.39928E+09 7.33213E+07 1.22202E+06  50918.      139.40    
1
 
 SOLVING FOR HEAD 

 CELL CONVERSIONS FOR ITER.=  2  LAYER=  2  STEP= 80  PERIOD=   2   (ROW,COL)
    DRY( 10, 34)   
    11 CALLS TO PCG ROUTINE FOR TIME STEP  80 IN STRESS PERIOD    2
    27 TOTAL ITERATIONS

 MAXIMUM HEAD CHANGE FOR EACH ITERATION (1 INDICATES THE FIRST INNER ITERATION):

    HEAD CHANGE    HEAD CHANGE    HEAD CHANGE    HEAD CHANGE    HEAD CHANGE 
   LAYER,ROW,COL  LAYER,ROW,COL  LAYER,ROW,COL  LAYER,ROW,COL  LAYER,ROW,COL
 ---------------------------------------------------------------------------
  1 -0.2985      0 -0.7976E-01  0 -0.1706E-01  0 -0.4749E-02  0  0.1728E-02
   (  1, 17, 11)  (  2, 22, 10)  (  2, 24,  8)  (  1, 18, 11)  (  2,  5, 11)
  0  0.4359E-03  1  0.2077E-01  0  0.6708E-02  0  0.1689E-02  0  0.4465E-03
   (  2,  4, 14)  (  2, 55, 33)  (  2, 55, 33)  (  2, 55, 33)  (  2, 55, 33)
  1 -0.1972E-01  0 -0.5084E-03  1  0.1334E-01  0  0.2466E-03  1 -0.9117E-02
   (  2, 55, 33)  (  2, 55, 33)  (  2, 55, 33)  (  2, 55, 33)  (  2, 55, 33)
  0 -0.1215E-03  1  0.6190E-02  0  0.7728E-04  1 -0.4230E-02  0 -0.4796E-04
   (  2, 55, 33)  (  2, 55, 33)  (  2, 55, 33)  (  2, 55, 33)  (  2, 55, 33)
  1  0.2883E-02  0  0.3352E-04  1 -0.1967E-02  0 -0.2357E-04  1  0.1337E-02
   (  2, 55, 33)  (  2, 55, 33)  (  2, 55, 33)  (  2, 55, 33)  (  2, 55, 33)
  0  0.1807E-04  1 -0.9063E-03
   (  2, 55, 33)  (  2, 55, 33)

 MAXIMUM RESIDUAL FOR EACH ITERATION (1 INDICATES THE FIRST INNER ITERATION):

    RESIDUAL       RESIDUAL       RESIDUAL       RESIDUAL       RESIDUAL    
   LAYER,ROW,COL  LAYER,ROW,COL  LAYER,ROW,COL  LAYER,ROW,COL  LAYER,ROW,COL
 ---------------------------------------------------------------------------
  1 -0.5576E-03  0 -0.2228E-03  0 -0.4545E-04  0 -0.1477E-04  0  0.4929E-05
   (  2, 17, 11)  (  2, 17, 11)  (  2, 18, 10)  (  2, 18, 10)  (  2, 21,  7)
  0  0.1471E-05  1 -0.6625E-05  0 -0.1654E-05  0  0.4477E-06  0 -0.1818E-06
   (  2, 21,  7)  (  2, 18, 11)  (  2, 17, 11)  (  2, 18, 11)  (  2, 18, 10)
  1 -0.5856E-06  0 -0.1553E-06  1  0.2872E-06  0  0.1339E-06  1 -0.1682E-06
   (  2, 12, 21)  (  2, 12, 21)  (  2,  5, 11)  (  2, 53, 34)  (  2, 53, 34)
  0 -0.9330E-07  1  0.1161E-06  0  0.6760E-07  1 -0.8070E-07  0 -0.4430E-07
   (  2, 53, 34)  (  2, 53, 34)  (  2, 53, 34)  (  2, 53, 34)  (  2, 53, 34)
  1  0.5445E-07  0  0.3101E-07  1 -0.3732E-07  0 -0.2035E-07  1  0.2505E-07
   (  2, 53, 34)  (  2, 53, 34)  (  2, 53, 34)  (  2, 53, 34)  (  2, 53, 34)
  0  0.1397E-07  1  0.1864E-07
   (  2, 53, 34)  (  2, 55, 31)



 OUTPUT CONTROL FOR STRESS PERIOD    2   TIME STEP   80
    SAVE HEAD FOR ALL LAYERS
    SAVE DRAWDOWN FOR ALL LAYERS
    SAVE BUDGET
    PRINT BUDGET
 UBDSV1 SAVING "         STORAGE" ON UNIT   9 AT TIME STEP 80, STRESS PERIOD   2
 UBDSV2 SAVING "   CONSTANT HEAD" ON UNIT   9 AT TIME STEP 80, STRESS PERIOD   2
 UBDSV1 SAVING "FLOW RIGHT FACE " ON UNIT   9 AT TIME STEP 80, STRESS PERIOD   2
 UBDSV1 SAVING "FLOW FRONT FACE " ON UNIT   9 AT TIME STEP 80, STRESS PERIOD   2
 UBDSV1 SAVING "FLOW LOWER FACE " ON UNIT   9 AT TIME STEP 80, STRESS PERIOD   2
 UBDSV4 SAVING "           WELLS" ON UNIT   9 AT TIME STEP 80, STRESS PERIOD   2
 UBDSV4 SAVING "   RIVER LEAKAGE" ON UNIT   9 AT TIME STEP 80, STRESS PERIOD   2
 UBDSV3 SAVING "              ET" ON UNIT   9 AT TIME STEP 80, STRESS PERIOD   2
 UBDSV4 SAVING " HEAD DEP BOUNDS" ON UNIT   9 AT TIME STEP 80, STRESS PERIOD   2
 UBDSV3 SAVING "        RECHARGE" ON UNIT   9 AT TIME STEP 80, STRESS PERIOD   2
 SOLVING FOR ZETA FOR LAYER     1 ZONE     2
     2 CALLS TO PCG ROUTINE FOR TIME STEP  80 IN STRESS PERIOD    2
     4 TOTAL ITERATIONS

 MAXIMUM HEAD CHANGE FOR EACH ITERATION (1 INDICATES THE FIRST INNER ITERATION):

    HEAD CHANGE    HEAD CHANGE    HEAD CHANGE    HEAD CHANGE    HEAD CHANGE 
   LAYER,ROW,COL  LAYER,ROW,COL  LAYER,ROW,COL  LAYER,ROW,COL  LAYER,ROW,COL
 ---------------------------------------------------------------------------
  1   35.51      0  0.1088      0  0.6122E-03  1  0.3307E-05
   (  1, 18, 10)  (  1, 14,  9)  (  1, 15,  8)  (  1, 24,  7)

 MAXIMUM RESIDUAL FOR EACH ITERATION (1 INDICATES THE FIRST INNER ITERATION):

    RESIDUAL       RESIDUAL       RESIDUAL       RESIDUAL       RESIDUAL    
   LAYER,ROW,COL  LAYER,ROW,COL  LAYER,ROW,COL  LAYER,ROW,COL  LAYER,ROW,COL
 ---------------------------------------------------------------------------
  1 -0.3293E-04  0 -0.1981E-06  0 -0.9699E-09  1 -0.1605E-10
   (  1, 14,  9)  (  1, 15,  8)  (  1, 24,  7)  (  1, 25,  6)


 SOLVING FOR ZETA FOR LAYER     2 ZONE     2
     2 CALLS TO PCG ROUTINE FOR TIME STEP  80 IN STRESS PERIOD    2
     4 TOTAL ITERATIONS

 MAXIMUM HEAD CHANGE FOR EACH ITERATION (1 INDICATES THE FIRST INNER ITERATION):

    HEAD CHANGE    HEAD CHANGE    HEAD CHANGE    HEAD CHANGE    HEAD CHANGE 
   LAYER,ROW,COL  LAYER,ROW,COL  LAYER,ROW,COL  LAYER,ROW,COL  LAYER,ROW,COL
 ---------------------------------------------------------------------------
  1  -6.680      0  0.2139E-01  0  0.3308E-03  1  0.2939E-05
   (  1, 17, 12)  (  1,  7,  8)  (  1,  6,  9)  (  1,  7,  8)

 MAXIMUM RESIDUAL FOR EACH ITERATION (1 INDICATES THE FIRST INNER ITERATION):

    RESIDUAL       RESIDUAL       RESIDUAL       RESIDUAL       RESIDUAL    
   LAYER,ROW,COL  LAYER,ROW,COL  LAYER,ROW,COL  LAYER,ROW,COL  LAYER,ROW,COL
 ---------------------------------------------------------------------------
  1 -0.6415E-05  0 -0.1211E-06  0 -0.1001E-08  1 -0.2056E-10
   (  1,  7,  8)  (  1,  6,  9)  (  1,  7,  8)  (  1,  6,  9)


 UBUDSV SAVING "      ZETASRF  1" ON UNIT170 AT TIME STEP 80, STRESS PERIOD    2


                      VOLUMETRIC SWI ZONE BUDGET FOR ENTIRE MODEL
                     AT END OF TIME STEP   80 IN STRESS PERIOD   2
                                      ZONE     1
  -----------------------------------------------------------------------------------

        CUMULATIVE VOLUMES      L**3       RATES FOR THIS TIME STEP      L**3/T
        ------------------                 ------------------------

              IN:                                      IN:
              ---                                      ---
             BOUNDARIES =   774867392.0000            BOUNDARIES =           0.1877
          CONSTANT HEAD =           0.0000         CONSTANT HEAD =           0.0000
            ZONE CHANGE =   199920096.0000           ZONE CHANGE =       5.9248E-02
       ZONE CHG TIP/TOE =    11431093.0000      ZONE CHG TIP/TOE =       7.4657E-03
            ZONE MIXING =           0.0000           ZONE MIXING =           0.0000

               TOTAL IN =   986218560.0000              TOTAL IN =           0.2544

             OUT:                                     OUT:
             ----                                     ----
             BOUNDARIES =   882055488.0000            BOUNDARIES =           0.2819
          CONSTANT HEAD =           0.0000         CONSTANT HEAD =           0.0000
            ZONE CHANGE =    32055058.0000           ZONE CHANGE =       5.9652E-03
       ZONE CHG TIP/TOE =     9018646.0000      ZONE CHG TIP/TOE =       6.5612E-03
            ZONE MIXING =     1099185.5000           ZONE MIXING =           0.0000

              TOTAL OUT =   924228352.0000             TOTAL OUT =           0.2944

               IN - OUT =    61990208.0000              IN - OUT =      -4.0010E-02

    PERCENT DISCREPANCY =           6.49     PERCENT DISCREPANCY =         -14.58



                      VOLUMETRIC SWI ZONE BUDGET FOR ENTIRE MODEL
                     AT END OF TIME STEP   80 IN STRESS PERIOD   2
                                      ZONE     2
  -----------------------------------------------------------------------------------

        CUMULATIVE VOLUMES      L**3       RATES FOR THIS TIME STEP      L**3/T
        ------------------                 ------------------------

              IN:                                      IN:
              ---                                      ---
             BOUNDARIES =   116331648.0000            BOUNDARIES =           0.1293
          CONSTANT HEAD =           0.0000         CONSTANT HEAD =           0.0000
            ZONE CHANGE =    27251772.0000           ZONE CHANGE =       4.8627E-03
       ZONE CHG TIP/TOE =    21529046.0000      ZONE CHG TIP/TOE =       5.2344E-02
            ZONE MIXING =     1099185.5000           ZONE MIXING =           0.0000

               TOTAL IN =   166211648.0000              TOTAL IN =           0.1865

             OUT:                                     OUT:
             ----                                     ----
             BOUNDARIES =   101827200.0000            BOUNDARIES =       7.2717E-02
          CONSTANT HEAD =           0.0000         CONSTANT HEAD =           0.0000
            ZONE CHANGE =    59381716.0000           ZONE CHANGE =       7.3955E-02
       ZONE CHG TIP/TOE =     7214696.5000      ZONE CHG TIP/TOE =       6.0883E-03
            ZONE MIXING =           0.0000           ZONE MIXING =           0.0000

              TOTAL OUT =   168423616.0000             TOTAL OUT =           0.1528

               IN - OUT =    -2211968.0000              IN - OUT =       3.3759E-02

    PERCENT DISCREPANCY =          -1.32     PERCENT DISCREPANCY =          19.90


 HEAD WILL BE SAVED ON UNIT   37 AT END OF TIME STEP   80, STRESS PERIOD    2

 DRAWDOWN WILL BE SAVED ON UNIT   38 AT END OF TIME STEP   80, STRESS PERIOD    2
1
  VOLUMETRIC BUDGET FOR ENTIRE MODEL AT END OF TIME STEP   80, STRESS PERIOD   2
  ------------------------------------------------------------------------------

     CUMULATIVE VOLUMES      L**3       RATES FOR THIS TIME STEP      L**3/T
     ------------------                 ------------------------

           IN:                                      IN:
           ---                                      ---
             STORAGE =    87315840.0000               STORAGE =       3.7744E-02
       CONSTANT HEAD =           0.0000         CONSTANT HEAD =           0.0000
               WELLS =           0.0000                 WELLS =           0.0000
       RIVER LEAKAGE =   161513760.0000         RIVER LEAKAGE =       3.6000E-02
                  ET =           0.0000                    ET =           0.0000
     HEAD DEP BOUNDS =   126838152.0000       HEAD DEP BOUNDS =           0.1322
            RECHARGE =   653854528.0000              RECHARGE =           0.1688
          SWIADDTOCH =           0.0000            SWIADDTOCH =           0.0000

            TOTAL IN =  1029522304.0000              TOTAL IN =           0.3747

          OUT:                                     OUT:
          ----                                     ----
             STORAGE =      101103.9766               STORAGE =       1.4179E-04
       CONSTANT HEAD =           0.0000         CONSTANT HEAD =           0.0000
               WELLS =   484708224.0000                 WELLS =           0.3740
       RIVER LEAKAGE =    21630804.0000         RIVER LEAKAGE =           0.0000
                  ET =   166413648.0000                    ET =           0.0000
     HEAD DEP BOUNDS =   356680864.0000       HEAD DEP BOUNDS =       5.4979E-04
            RECHARGE =           0.0000              RECHARGE =           0.0000
          SWIADDTOCH =           0.0000            SWIADDTOCH =           0.0000

           TOTAL OUT =  1029534592.0000             TOTAL OUT =           0.3747

            IN - OUT =      -12288.0000              IN - OUT =           0.0000

 PERCENT DISCREPANCY =          -0.00     PERCENT DISCREPANCY =           0.00






         TIME SUMMARY AT END OF TIME STEP   80 IN STRESS PERIOD    2
                    SECONDS     MINUTES      HOURS       DAYS        YEARS
                    -----------------------------------------------------------
   TIME STEP LENGTH 1.57680E+07 2.62800E+05  4380.0      182.50     0.49966    
 STRESS PERIOD TIME 1.26144E+09 2.10240E+07 3.50400E+05  14600.      39.973    
         TOTAL TIME 4.41505E+09 7.35841E+07 1.22640E+06  51100.      139.90    
1
 
 SOLVING FOR HEAD 

 CELL CONVERSIONS FOR ITER.=  2  LAYER=  1  STEP= 81  PERIOD=   2   (ROW,COL)
    DRY( 11, 26)   

 CELL CONVERSIONS FOR ITER.=  2  LAYER=  2  STEP= 81  PERIOD=   2   (ROW,COL)
    DRY( 56, 31)   
    16 CALLS TO PCG ROUTINE FOR TIME STEP  81 IN STRESS PERIOD    2
    37 TOTAL ITERATIONS

 MAXIMUM HEAD CHANGE FOR EACH ITERATION (1 INDICATES THE FIRST INNER ITERATION):

    HEAD CHANGE    HEAD CHANGE    HEAD CHANGE    HEAD CHANGE    HEAD CHANGE 
   LAYER,ROW,COL  LAYER,ROW,COL  LAYER,ROW,COL  LAYER,ROW,COL  LAYER,ROW,COL
 ---------------------------------------------------------------------------
  1  0.2685      0  0.9124E-01  0 -0.2091E-01  0 -0.5409E-02  0 -0.1860E-02
   (  2, 17, 11)  (  2, 16, 12)  (  2, 17, 11)  (  2, 16, 12)  (  2, 18, 10)
  0 -0.4291E-03  1 -0.3515E-01  0  0.7476E-02  0  0.1776E-02  0  0.4820E-03
   (  2,  6, 13)  (  2, 11, 26)  (  2, 51, 37)  (  2, 55, 33)  (  2, 55, 33)
  1 -0.1701E-01  0 -0.7411E-03  1  0.1354E-01  0  0.2950E-03  1 -0.1085E-01
   (  2, 55, 33)  (  2, 55, 33)  (  2, 55, 33)  (  2, 55, 33)  (  2, 55, 33)
  0 -0.1432E-03  1  0.8656E-02  0  0.9132E-04  1 -0.6937E-02  0 -0.6662E-04
   (  2, 55, 33)  (  2, 55, 33)  (  2, 55, 33)  (  2, 55, 33)  (  2, 55, 33)
  1  0.5551E-02  0  0.5198E-04  1 -0.4456E-02  0 -0.4143E-04  1  0.3573E-02
   (  2, 55, 33)  (  2, 55, 33)  (  2, 55, 33)  (  2, 54, 33)  (  2, 55, 33)
  0  0.3346E-04  1 -0.2871E-02  0 -0.2673E-04  1  0.2304E-02  0  0.2155E-04
   (  2, 54, 33)  (  2, 55, 33)  (  2, 54, 33)  (  2, 55, 33)  (  2, 54, 33)
  1 -0.1851E-02  0 -0.1725E-04  1  0.1486E-02  0  0.1389E-04  1 -0.1193E-02
   (  2, 55, 33)  (  2, 54, 33)  (  2, 55, 33)  (  2, 54, 33)  (  2, 55, 33)
  0 -0.1113E-04  1  0.9579E-03
   (  2, 54, 33)  (  2, 55, 33)

 MAXIMUM RESIDUAL FOR EACH ITERATION (1 INDICATES THE FIRST INNER ITERATION):

    RESIDUAL       RESIDUAL       RESIDUAL       RESIDUAL       RESIDUAL    
   LAYER,ROW,COL  LAYER,ROW,COL  LAYER,ROW,COL  LAYER,ROW,COL  LAYER,ROW,COL
 ---------------------------------------------------------------------------
  1  0.5665E-03  0  0.2259E-03  0  0.4897E-04  0 -0.1752E-04  0  0.6275E-05
   (  2, 17, 11)  (  2, 17, 11)  (  2, 16, 12)  (  2, 20, 10)  (  2, 21,  9)
  0  0.1430E-05  1  0.3046E-04  0  0.9572E-05  0  0.2403E-05  0  0.4998E-06
   (  2, 21,  9)  (  2, 11, 26)  (  2, 12, 25)  (  2, 10, 27)  (  2, 13, 24)
  1 -0.4771E-06  0  0.1914E-06  1  0.3108E-06  0  0.1278E-06  1  0.1789E-06
   (  2, 18, 11)  (  2, 50, 37)  (  2, 12, 21)  (  2, 12, 21)  (  2,  5, 11)
  0 -0.9890E-07  1  0.1409E-06  0  0.7886E-07  1 -0.1129E-06  0 -0.6221E-07
   (  2, 53, 34)  (  2, 53, 34)  (  2, 53, 34)  (  2, 53, 34)  (  2, 53, 34)
  1  0.9025E-07  0  0.4945E-07  1 -0.7214E-07  0 -0.3957E-07  1  0.5788E-07
   (  2, 53, 34)  (  2, 53, 34)  (  2, 53, 34)  (  2, 53, 34)  (  2, 53, 34)
  0  0.3164E-07  1 -0.4638E-07  0 -0.2542E-07  1  0.3726E-07  0  0.2037E-07
   (  2, 53, 34)  (  2, 53, 34)  (  2, 53, 34)  (  2, 53, 34)  (  2, 53, 34)
  1 -0.2989E-07  0 -0.1638E-07  1  0.2402E-07  0  0.1313E-07  1 -0.1928E-07
   (  2, 53, 34)  (  2, 53, 34)  (  2, 53, 34)  (  2, 53, 34)  (  2, 53, 34)
  0 -0.1056E-07  1  0.1548E-07
   (  2, 53, 34)  (  2, 53, 34)



 OUTPUT CONTROL FOR STRESS PERIOD    2   TIME STEP   81
    SAVE HEAD FOR ALL LAYERS
    SAVE DRAWDOWN FOR ALL LAYERS
    SAVE BUDGET
    PRINT BUDGET
 UBDSV1 SAVING "         STORAGE" ON UNIT   9 AT TIME STEP 81, STRESS PERIOD   2
 UBDSV2 SAVING "   CONSTANT HEAD" ON UNIT   9 AT TIME STEP 81, STRESS PERIOD   2
 UBDSV1 SAVING "FLOW RIGHT FACE " ON UNIT   9 AT TIME STEP 81, STRESS PERIOD   2
 UBDSV1 SAVING "FLOW FRONT FACE " ON UNIT   9 AT TIME STEP 81, STRESS PERIOD   2
 UBDSV1 SAVING "FLOW LOWER FACE " ON UNIT   9 AT TIME STEP 81, STRESS PERIOD   2
 UBDSV4 SAVING "           WELLS" ON UNIT   9 AT TIME STEP 81, STRESS PERIOD   2
 UBDSV4 SAVING "   RIVER LEAKAGE" ON UNIT   9 AT TIME STEP 81, STRESS PERIOD   2
 UBDSV3 SAVING "              ET" ON UNIT   9 AT TIME STEP 81, STRESS PERIOD   2
 UBDSV4 SAVING " HEAD DEP BOUNDS" ON UNIT   9 AT TIME STEP 81, STRESS PERIOD   2
 UBDSV3 SAVING "        RECHARGE" ON UNIT   9 AT TIME STEP 81, STRESS PERIOD   2
 SOLVING FOR ZETA FOR LAYER     1 ZONE     2
     2 CALLS TO PCG ROUTINE FOR TIME STEP  81 IN STRESS PERIOD    2
     4 TOTAL ITERATIONS

 MAXIMUM HEAD CHANGE FOR EACH ITERATION (1 INDICATES THE FIRST INNER ITERATION):

    HEAD CHANGE    HEAD CHANGE    HEAD CHANGE    HEAD CHANGE    HEAD CHANGE 
   LAYER,ROW,COL  LAYER,ROW,COL  LAYER,ROW,COL  LAYER,ROW,COL  LAYER,ROW,COL
 ---------------------------------------------------------------------------
  1   36.32      0  0.3873E-01  0  0.3087E-03  1  0.3024E-05
   (  1, 20,  9)  (  1, 19, 11)  (  1, 25,  6)  (  1, 24,  7)

 MAXIMUM RESIDUAL FOR EACH ITERATION (1 INDICATES THE FIRST INNER ITERATION):

    RESIDUAL       RESIDUAL       RESIDUAL       RESIDUAL       RESIDUAL    
   LAYER,ROW,COL  LAYER,ROW,COL  LAYER,ROW,COL  LAYER,ROW,COL  LAYER,ROW,COL
 ---------------------------------------------------------------------------
  1 -0.1119E-04  0 -0.1036E-06  0 -0.8979E-09  1 -0.1823E-10
   (  1, 19, 11)  (  1, 25,  6)  (  1, 24,  7)  (  1, 25,  6)


 SOLVING FOR ZETA FOR LAYER     2 ZONE     2
     2 CALLS TO PCG ROUTINE FOR TIME STEP  81 IN STRESS PERIOD    2
     4 TOTAL ITERATIONS

 MAXIMUM HEAD CHANGE FOR EACH ITERATION (1 INDICATES THE FIRST INNER ITERATION):

    HEAD CHANGE    HEAD CHANGE    HEAD CHANGE    HEAD CHANGE    HEAD CHANGE 
   LAYER,ROW,COL  LAYER,ROW,COL  LAYER,ROW,COL  LAYER,ROW,COL  LAYER,ROW,COL
 ---------------------------------------------------------------------------
  1   4.413      0  0.3075E-01  0  0.4489E-03  1  0.5974E-05
   (  1, 17, 11)  (  1, 28,  6)  (  1, 29,  5)  (  1, 30,  4)

 MAXIMUM RESIDUAL FOR EACH ITERATION (1 INDICATES THE FIRST INNER ITERATION):

    RESIDUAL       RESIDUAL       RESIDUAL       RESIDUAL       RESIDUAL    
   LAYER,ROW,COL  LAYER,ROW,COL  LAYER,ROW,COL  LAYER,ROW,COL  LAYER,ROW,COL
 ---------------------------------------------------------------------------
  1 -0.1030E-04  0 -0.1664E-06  0 -0.2351E-08  1 -0.4247E-10
   (  1, 28,  6)  (  1, 29,  5)  (  1, 30,  4)  (  1, 29,  5)


 UBUDSV SAVING "      ZETASRF  1" ON UNIT170 AT TIME STEP 81, STRESS PERIOD    2


                      VOLUMETRIC SWI ZONE BUDGET FOR ENTIRE MODEL
                     AT END OF TIME STEP   81 IN STRESS PERIOD   2
                                      ZONE     1
  -----------------------------------------------------------------------------------

        CUMULATIVE VOLUMES      L**3       RATES FOR THIS TIME STEP      L**3/T
        ------------------                 ------------------------

              IN:                                      IN:
              ---                                      ---
             BOUNDARIES =   777824960.0000            BOUNDARIES =           0.1876
          CONSTANT HEAD =           0.0000         CONSTANT HEAD =           0.0000
            ZONE CHANGE =   200750928.0000           ZONE CHANGE =       5.2691E-02
       ZONE CHG TIP/TOE =    11485573.0000      ZONE CHG TIP/TOE =       3.4551E-03
            ZONE MIXING =           0.0000           ZONE MIXING =           0.0000

               TOTAL IN =   990061440.0000              TOTAL IN =           0.2437

             OUT:                                     OUT:
             ----                                     ----
             BOUNDARIES =   886043712.0000            BOUNDARIES =           0.2529
          CONSTANT HEAD =           0.0000         CONSTANT HEAD =           0.0000
            ZONE CHANGE =    32188034.0000           ZONE CHANGE =       8.4333E-03
       ZONE CHG TIP/TOE =     9063482.0000      ZONE CHG TIP/TOE =       2.8435E-03
            ZONE MIXING =     1099185.5000           ZONE MIXING =           0.0000

              TOTAL OUT =   928394432.0000             TOTAL OUT =           0.2642

               IN - OUT =    61667008.0000              IN - OUT =      -2.0496E-02

    PERCENT DISCREPANCY =           6.43     PERCENT DISCREPANCY =          -8.07



                      VOLUMETRIC SWI ZONE BUDGET FOR ENTIRE MODEL
                     AT END OF TIME STEP   81 IN STRESS PERIOD   2
                                      ZONE     2
  -----------------------------------------------------------------------------------

        CUMULATIVE VOLUMES      L**3       RATES FOR THIS TIME STEP      L**3/T
        ------------------                 ------------------------

              IN:                                      IN:
              ---                                      ---
             BOUNDARIES =   118376856.0000            BOUNDARIES =           0.1297
          CONSTANT HEAD =           0.0000         CONSTANT HEAD =           0.0000
            ZONE CHANGE =    27387532.0000           ZONE CHANGE =       8.6099E-03
       ZONE CHG TIP/TOE =    21813584.0000      ZONE CHG TIP/TOE =       1.8045E-02
            ZONE MIXING =     1099185.5000           ZONE MIXING =           0.0000

               TOTAL IN =   168677152.0000              TOTAL IN =           0.1564

             OUT:                                     OUT:
             ----                                     ----
             BOUNDARIES =   103428840.0000            BOUNDARIES =           0.1016
          CONSTANT HEAD =           0.0000         CONSTANT HEAD =           0.0000
            ZONE CHANGE =    59970360.0000           ZONE CHANGE =       3.7332E-02
       ZONE CHG TIP/TOE =     7264340.0000      ZONE CHG TIP/TOE =       3.1484E-03
            ZONE MIXING =           0.0000           ZONE MIXING =           0.0000

              TOTAL OUT =   170663552.0000             TOTAL OUT =           0.1421

               IN - OUT =    -1986400.0000              IN - OUT =       1.4306E-02

    PERCENT DISCREPANCY =          -1.17     PERCENT DISCREPANCY =           9.59


 HEAD WILL BE SAVED ON UNIT   37 AT END OF TIME STEP   81, STRESS PERIOD    2

 DRAWDOWN WILL BE SAVED ON UNIT   38 AT END OF TIME STEP   81, STRESS PERIOD    2
1
  VOLUMETRIC BUDGET FOR ENTIRE MODEL AT END OF TIME STEP   81, STRESS PERIOD   2
  ------------------------------------------------------------------------------

     CUMULATIVE VOLUMES      L**3       RATES FOR THIS TIME STEP      L**3/T
     ------------------                 ------------------------

           IN:                                      IN:
           ---                                      ---
             STORAGE =    87905216.0000               STORAGE =       3.7378E-02
       CONSTANT HEAD =           0.0000         CONSTANT HEAD =           0.0000
               WELLS =           0.0000                 WELLS =           0.0000
       RIVER LEAKAGE =   162081408.0000         RIVER LEAKAGE =       3.6000E-02
                  ET =           0.0000                    ET =           0.0000
     HEAD DEP BOUNDS =   128930256.0000       HEAD DEP BOUNDS =           0.1327
            RECHARGE =   656512512.0000              RECHARGE =           0.1686
          SWIADDTOCH =           0.0000            SWIADDTOCH =           0.0000

            TOTAL IN =  1035429376.0000              TOTAL IN =           0.3746

          OUT:                                     OUT:
          ----                                     ----
             STORAGE =      103367.3359               STORAGE =       1.4354E-04
       CONSTANT HEAD =           0.0000         CONSTANT HEAD =           0.0000
               WELLS =   490605440.0000                 WELLS =           0.3740
       RIVER LEAKAGE =    21630804.0000         RIVER LEAKAGE =           0.0000
                  ET =   166413648.0000                    ET =           0.0000
     HEAD DEP BOUNDS =   356688512.0000       HEAD DEP BOUNDS =       4.8415E-04
            RECHARGE =           0.0000              RECHARGE =           0.0000
          SWIADDTOCH =           0.0000            SWIADDTOCH =           0.0000

           TOTAL OUT =  1035441792.0000             TOTAL OUT =           0.3746

            IN - OUT =      -12416.0000              IN - OUT =           0.0000

 PERCENT DISCREPANCY =          -0.00     PERCENT DISCREPANCY =           0.00






         TIME SUMMARY AT END OF TIME STEP   81 IN STRESS PERIOD    2
                    SECONDS     MINUTES      HOURS       DAYS        YEARS
                    -----------------------------------------------------------
   TIME STEP LENGTH 1.57680E+07 2.62800E+05  4380.0      182.50     0.49966    
 STRESS PERIOD TIME 1.27721E+09 2.12868E+07 3.54780E+05  14783.      40.472    
         TOTAL TIME 4.43081E+09 7.38469E+07 1.23078E+06  51283.      140.40    
1
 
 SOLVING FOR HEAD 
    31 CALLS TO PCG ROUTINE FOR TIME STEP  82 IN STRESS PERIOD    2
    67 TOTAL ITERATIONS

 MAXIMUM HEAD CHANGE FOR EACH ITERATION (1 INDICATES THE FIRST INNER ITERATION):

    HEAD CHANGE    HEAD CHANGE    HEAD CHANGE    HEAD CHANGE    HEAD CHANGE 
   LAYER,ROW,COL  LAYER,ROW,COL  LAYER,ROW,COL  LAYER,ROW,COL  LAYER,ROW,COL
 ---------------------------------------------------------------------------
  1 -0.3072      0 -0.7912E-01  0 -0.2442E-01  0 -0.6599E-02  0 -0.1557E-02
   (  2, 17, 11)  (  2, 16, 12)  (  2,  7,  8)  (  2,  5, 11)  (  2, 10, 11)
  0 -0.5391E-03  1  0.2420E-01  0  0.7848E-02  0  0.1624E-02  0  0.2821E-03
   (  2, 20, 10)  (  2, 51, 37)  (  2, 51, 37)  (  2, 51, 37)  (  2, 51, 38)
  1 -0.1395E-01  0 -0.5035E-03  1  0.1252E-01  0  0.2669E-03  1 -0.1136E-01
   (  2, 55, 33)  (  2, 55, 33)  (  2, 55, 33)  (  2, 55, 33)  (  2, 55, 33)
  0 -0.1394E-03  1  0.1030E-01  0  0.9472E-04  1 -0.9356E-02  0 -0.8225E-04
   (  2, 55, 33)  (  2, 55, 33)  (  2, 55, 33)  (  2, 55, 33)  (  2, 54, 33)
  1  0.8496E-02  0  0.7729E-04  1 -0.7731E-02  0 -0.6919E-04  1  0.7030E-02
   (  2, 55, 33)  (  2, 54, 33)  (  2, 55, 33)  (  2, 54, 33)  (  2, 55, 33)
  0  0.6420E-04  1 -0.6401E-02  0 -0.5743E-04  1  0.5826E-02  0  0.5307E-04
   (  2, 54, 33)  (  2, 55, 33)  (  2, 54, 33)  (  2, 55, 33)  (  2, 54, 33)
  1 -0.5309E-02  0 -0.4773E-04  1  0.4836E-02  0  0.4396E-04  1 -0.4407E-02
   (  2, 55, 33)  (  2, 54, 33)  (  2, 55, 33)  (  2, 54, 33)  (  2, 55, 33)
  0 -0.3967E-04  1  0.4013E-02  0  0.3643E-04  1 -0.3656E-02  0 -0.3295E-04
   (  2, 54, 33)  (  2, 55, 33)  (  2, 54, 33)  (  2, 55, 33)  (  2, 54, 33)
  1  0.3329E-02  0  0.3019E-04  1 -0.3035E-02  0 -0.2737E-04  1  0.2765E-02
   (  2, 55, 33)  (  2, 54, 33)  (  2, 55, 33)  (  2, 54, 33)  (  2, 55, 33)
  0  0.2505E-04  1 -0.2520E-02  0 -0.2274E-04  1  0.2296E-02  0  0.2078E-04
   (  2, 54, 33)  (  2, 55, 33)  (  2, 54, 33)  (  2, 55, 33)  (  2, 54, 33)
  1 -0.2093E-02  0 -0.1889E-04  1  0.1907E-02  0  0.1726E-04  1 -0.1737E-02
   (  2, 55, 33)  (  2, 54, 33)  (  2, 55, 33)  (  2, 54, 33)  (  2, 55, 33)
  0 -0.1568E-04  1  0.1581E-02  0  0.1430E-04  1 -0.1440E-02  0 -0.1301E-04
   (  2, 54, 33)  (  2, 55, 33)  (  2, 54, 33)  (  2, 55, 33)  (  2, 54, 33)
  1  0.1313E-02  0  0.1187E-04  1 -0.1197E-02  0 -0.1082E-04  1  0.1089E-02
   (  2, 55, 33)  (  2, 54, 33)  (  2, 55, 33)  (  2, 54, 33)  (  2, 55, 33)
  0  0.9844E-05  1 -0.9912E-03
   (  2, 54, 33)  (  2, 55, 33)

 MAXIMUM RESIDUAL FOR EACH ITERATION (1 INDICATES THE FIRST INNER ITERATION):

    RESIDUAL       RESIDUAL       RESIDUAL       RESIDUAL       RESIDUAL    
   LAYER,ROW,COL  LAYER,ROW,COL  LAYER,ROW,COL  LAYER,ROW,COL  LAYER,ROW,COL
 ---------------------------------------------------------------------------
  1 -0.4933E-03  0 -0.2044E-03  0 -0.4886E-04  0  0.2243E-04  0  0.9298E-05
   (  2, 17, 11)  (  2, 17, 11)  (  2, 16, 12)  (  2, 20, 10)  (  2, 20, 10)
  0  0.2044E-05  1 -0.4519E-05  0 -0.2348E-05  0  0.6884E-06  0  0.1310E-06
   (  2, 22,  9)  (  2, 18, 11)  (  2, 17, 11)  (  2, 17, 10)  (  2, 17, 10)
  1 -0.5625E-06  0  0.2046E-06  1  0.3017E-06  0 -0.1243E-06  1 -0.1873E-06
   (  2, 12, 21)  (  2, 50, 37)  (  2, 12, 21)  (  2, 50, 37)  (  2, 12, 21)
  0 -0.9053E-07  1  0.1476E-06  0  0.8136E-07  1 -0.1338E-06  0 -0.7266E-07
   (  2, 53, 34)  (  2, 53, 34)  (  2, 53, 34)  (  2, 53, 34)  (  2, 53, 34)
  1  0.1215E-06  0  0.6494E-07  1 -0.1099E-06  0 -0.5929E-07  1  0.1002E-06
   (  2, 53, 34)  (  2, 53, 34)  (  2, 53, 34)  (  2, 53, 34)  (  2, 53, 34)
  0  0.5343E-07  1 -0.9084E-07  0 -0.4893E-07  1  0.8291E-07  0  0.4427E-07
   (  2, 53, 34)  (  2, 53, 34)  (  2, 53, 34)  (  2, 53, 34)  (  2, 53, 34)
  1 -0.7530E-07  0 -0.4051E-07  1  0.6875E-07  0  0.3674E-07  1 -0.6249E-07
   (  2, 53, 34)  (  2, 53, 34)  (  2, 53, 34)  (  2, 53, 34)  (  2, 53, 34)
  0 -0.3359E-07  1  0.5703E-07  0  0.3051E-07  1 -0.5187E-07  0 -0.2786E-07
   (  2, 53, 34)  (  2, 53, 34)  (  2, 53, 34)  (  2, 53, 34)  (  2, 53, 34)
  1  0.4732E-07  0  0.2533E-07  1 -0.4306E-07  0 -0.2312E-07  1  0.3928E-07
   (  2, 53, 34)  (  2, 53, 34)  (  2, 53, 34)  (  2, 53, 34)  (  2, 53, 34)
  0  0.2103E-07  1 -0.3575E-07  0 -0.1919E-07  1  0.3259E-07  0  0.1746E-07
   (  2, 53, 34)  (  2, 53, 34)  (  2, 53, 34)  (  2, 53, 34)  (  2, 53, 34)
  1 -0.2968E-07  0 -0.1592E-07  1  0.2707E-07  0  0.1451E-07  1 -0.2464E-07
   (  2, 53, 34)  (  2, 53, 34)  (  2, 53, 34)  (  2, 53, 34)  (  2, 53, 34)
  0 -0.1322E-07  1  0.2245E-07  0  0.1204E-07  1 -0.2044E-07  0 -0.1096E-07
   (  2, 53, 34)  (  2, 53, 34)  (  2, 53, 34)  (  2, 53, 34)  (  2, 53, 34)
  1  0.1863E-07  0  0.9985E-08  1 -0.1698E-07  0 -0.9101E-08  1  0.1547E-07
   (  2, 53, 34)  (  2, 53, 34)  (  2, 53, 34)  (  2, 53, 34)  (  2, 53, 34)
  0  0.8297E-08  1 -0.1408E-07
   (  2, 53, 34)  (  2, 53, 34)



 OUTPUT CONTROL FOR STRESS PERIOD    2   TIME STEP   82
    SAVE HEAD FOR ALL LAYERS
    SAVE DRAWDOWN FOR ALL LAYERS
    SAVE BUDGET
    PRINT BUDGET
 UBDSV1 SAVING "         STORAGE" ON UNIT   9 AT TIME STEP 82, STRESS PERIOD   2
 UBDSV2 SAVING "   CONSTANT HEAD" ON UNIT   9 AT TIME STEP 82, STRESS PERIOD   2
 UBDSV1 SAVING "FLOW RIGHT FACE " ON UNIT   9 AT TIME STEP 82, STRESS PERIOD   2
 UBDSV1 SAVING "FLOW FRONT FACE " ON UNIT   9 AT TIME STEP 82, STRESS PERIOD   2
 UBDSV1 SAVING "FLOW LOWER FACE " ON UNIT   9 AT TIME STEP 82, STRESS PERIOD   2
 UBDSV4 SAVING "           WELLS" ON UNIT   9 AT TIME STEP 82, STRESS PERIOD   2
 UBDSV4 SAVING "   RIVER LEAKAGE" ON UNIT   9 AT TIME STEP 82, STRESS PERIOD   2
 UBDSV3 SAVING "              ET" ON UNIT   9 AT TIME STEP 82, STRESS PERIOD   2
 UBDSV4 SAVING " HEAD DEP BOUNDS" ON UNIT   9 AT TIME STEP 82, STRESS PERIOD   2
 UBDSV3 SAVING "        RECHARGE" ON UNIT   9 AT TIME STEP 82, STRESS PERIOD   2
 SOLVING FOR ZETA FOR LAYER     1 ZONE     2
     2 CALLS TO PCG ROUTINE FOR TIME STEP  82 IN STRESS PERIOD    2
     4 TOTAL ITERATIONS

 MAXIMUM HEAD CHANGE FOR EACH ITERATION (1 INDICATES THE FIRST INNER ITERATION):

    HEAD CHANGE    HEAD CHANGE    HEAD CHANGE    HEAD CHANGE    HEAD CHANGE 
   LAYER,ROW,COL  LAYER,ROW,COL  LAYER,ROW,COL  LAYER,ROW,COL  LAYER,ROW,COL
 ---------------------------------------------------------------------------
  1   18.34      0  0.8202E-01  0  0.3089E-03  1  0.4051E-05
   (  1, 17, 10)  (  1, 16, 11)  (  1, 25,  6)  (  1, 24,  7)

 MAXIMUM RESIDUAL FOR EACH ITERATION (1 INDICATES THE FIRST INNER ITERATION):

    RESIDUAL       RESIDUAL       RESIDUAL       RESIDUAL       RESIDUAL    
   LAYER,ROW,COL  LAYER,ROW,COL  LAYER,ROW,COL  LAYER,ROW,COL  LAYER,ROW,COL
 ---------------------------------------------------------------------------
  1 -0.2193E-04  0 -0.1047E-06  0 -0.1210E-08  1 -0.2456E-10
   (  1, 16, 11)  (  1, 25,  6)  (  1, 24,  7)  (  1, 25,  6)


 SOLVING FOR ZETA FOR LAYER     2 ZONE     2
     2 CALLS TO PCG ROUTINE FOR TIME STEP  82 IN STRESS PERIOD    2
     4 TOTAL ITERATIONS

 MAXIMUM HEAD CHANGE FOR EACH ITERATION (1 INDICATES THE FIRST INNER ITERATION):

    HEAD CHANGE    HEAD CHANGE    HEAD CHANGE    HEAD CHANGE    HEAD CHANGE 
   LAYER,ROW,COL  LAYER,ROW,COL  LAYER,ROW,COL  LAYER,ROW,COL  LAYER,ROW,COL
 ---------------------------------------------------------------------------
  1  -6.447      0  0.3689E-01  0  0.4343E-03  1  0.5886E-05
   (  1, 17, 12)  (  1,  7,  9)  (  1, 29,  5)  (  1, 30,  4)

 MAXIMUM RESIDUAL FOR EACH ITERATION (1 INDICATES THE FIRST INNER ITERATION):

    RESIDUAL       RESIDUAL       RESIDUAL       RESIDUAL       RESIDUAL    
   LAYER,ROW,COL  LAYER,ROW,COL  LAYER,ROW,COL  LAYER,ROW,COL  LAYER,ROW,COL
 ---------------------------------------------------------------------------
  1 -0.1407E-04  0 -0.1599E-06  0 -0.2330E-08  1 -0.5842E-10
   (  1,  7,  9)  (  1, 29,  5)  (  1, 30,  4)  (  1, 29,  5)


 UBUDSV SAVING "      ZETASRF  1" ON UNIT170 AT TIME STEP 82, STRESS PERIOD    2


                      VOLUMETRIC SWI ZONE BUDGET FOR ENTIRE MODEL
                     AT END OF TIME STEP   82 IN STRESS PERIOD   2
                                      ZONE     1
  -----------------------------------------------------------------------------------

        CUMULATIVE VOLUMES      L**3       RATES FOR THIS TIME STEP      L**3/T
        ------------------                 ------------------------

              IN:                                      IN:
              ---                                      ---
             BOUNDARIES =   780783808.0000            BOUNDARIES =           0.1877
          CONSTANT HEAD =           0.0000         CONSTANT HEAD =           0.0000
            ZONE CHANGE =   201487584.0000           ZONE CHANGE =       4.6719E-02
       ZONE CHG TIP/TOE =    11618660.0000      ZONE CHG TIP/TOE =       8.4404E-03
            ZONE MIXING =           0.0000           ZONE MIXING =           0.0000

               TOTAL IN =   993890048.0000              TOTAL IN =           0.2428

             OUT:                                     OUT:
             ----                                     ----
             BOUNDARIES =   889645952.0000            BOUNDARIES =           0.2285
          CONSTANT HEAD =           0.0000         CONSTANT HEAD =           0.0000
            ZONE CHANGE =    32412786.0000           ZONE CHANGE =       1.4254E-02
       ZONE CHG TIP/TOE =     9169168.0000      ZONE CHG TIP/TOE =       6.7026E-03
            ZONE MIXING =     1099185.5000           ZONE MIXING =           0.0000

              TOTAL OUT =   932327104.0000             TOTAL OUT =           0.2494

               IN - OUT =    61562944.0000              IN - OUT =      -6.6001E-03

    PERCENT DISCREPANCY =           6.39     PERCENT DISCREPANCY =          -2.68



                      VOLUMETRIC SWI ZONE BUDGET FOR ENTIRE MODEL
                     AT END OF TIME STEP   82 IN STRESS PERIOD   2
                                      ZONE     2
  -----------------------------------------------------------------------------------

        CUMULATIVE VOLUMES      L**3       RATES FOR THIS TIME STEP      L**3/T
        ------------------                 ------------------------

              IN:                                      IN:
              ---                                      ---
             BOUNDARIES =   120430160.0000            BOUNDARIES =           0.1302
          CONSTANT HEAD =           0.0000         CONSTANT HEAD =           0.0000
            ZONE CHANGE =    27536768.0000           ZONE CHANGE =       9.4645E-03
       ZONE CHG TIP/TOE =    22052686.0000      ZONE CHG TIP/TOE =       1.5164E-02
            ZONE MIXING =     1099185.5000           ZONE MIXING =           0.0000

               TOTAL IN =   171118800.0000              TOTAL IN =           0.1548

             OUT:                                     OUT:
             ----                                     ----
             BOUNDARIES =   105415680.0000            BOUNDARIES =           0.1260
          CONSTANT HEAD =           0.0000         CONSTANT HEAD =           0.0000
            ZONE CHANGE =    60369000.0000           ZONE CHANGE =       2.5281E-02
       ZONE CHG TIP/TOE =     7312340.0000      ZONE CHG TIP/TOE =       3.0441E-03
            ZONE MIXING =           0.0000           ZONE MIXING =           0.0000

              TOTAL OUT =   173097024.0000             TOTAL OUT =           0.1543

               IN - OUT =    -1978224.0000              IN - OUT =       5.1771E-04

    PERCENT DISCREPANCY =          -1.15     PERCENT DISCREPANCY =           0.33


 HEAD WILL BE SAVED ON UNIT   37 AT END OF TIME STEP   82, STRESS PERIOD    2

 DRAWDOWN WILL BE SAVED ON UNIT   38 AT END OF TIME STEP   82, STRESS PERIOD    2
1
  VOLUMETRIC BUDGET FOR ENTIRE MODEL AT END OF TIME STEP   82, STRESS PERIOD   2
  ------------------------------------------------------------------------------

     CUMULATIVE VOLUMES      L**3       RATES FOR THIS TIME STEP      L**3/T
     ------------------                 ------------------------

           IN:                                      IN:
           ---                                      ---
             STORAGE =    88483432.0000               STORAGE =       3.6670E-02
       CONSTANT HEAD =           0.0000         CONSTANT HEAD =           0.0000
               WELLS =           0.0000                 WELLS =           0.0000
       RIVER LEAKAGE =   162649056.0000         RIVER LEAKAGE =       3.6000E-02
                  ET =           0.0000                    ET =           0.0000
     HEAD DEP BOUNDS =   131031784.0000       HEAD DEP BOUNDS =           0.1333
            RECHARGE =   659170496.0000              RECHARGE =           0.1686
          SWIADDTOCH =           0.0000            SWIADDTOCH =           0.0000

            TOTAL IN =  1041334784.0000              TOTAL IN =           0.3745

          OUT:                                     OUT:
          ----                                     ----
             STORAGE =      104664.0078               STORAGE =       8.2234E-05
       CONSTANT HEAD =           0.0000         CONSTANT HEAD =           0.0000
               WELLS =   496502656.0000                 WELLS =           0.3740
       RIVER LEAKAGE =    21630804.0000         RIVER LEAKAGE =           0.0000
                  ET =   166413648.0000                    ET =           0.0000
     HEAD DEP BOUNDS =   356695360.0000       HEAD DEP BOUNDS =       4.3511E-04
            RECHARGE =           0.0000              RECHARGE =           0.0000
          SWIADDTOCH =           0.0000            SWIADDTOCH =           0.0000

           TOTAL OUT =  1041347136.0000             TOTAL OUT =           0.3745

            IN - OUT =      -12352.0000              IN - OUT =       2.9802E-08

 PERCENT DISCREPANCY =          -0.00     PERCENT DISCREPANCY =           0.00






         TIME SUMMARY AT END OF TIME STEP   82 IN STRESS PERIOD    2
                    SECONDS     MINUTES      HOURS       DAYS        YEARS
                    -----------------------------------------------------------
   TIME STEP LENGTH 1.57680E+07 2.62800E+05  4380.0      182.50     0.49966    
 STRESS PERIOD TIME 1.29298E+09 2.15496E+07 3.59160E+05  14965.      40.972    
         TOTAL TIME 4.44658E+09 7.41097E+07 1.23516E+06  51465.      140.90    
1
 
 SOLVING FOR HEAD 

 CELL CONVERSIONS FOR ITER.=  2  LAYER=  1  STEP= 83  PERIOD=   2   (ROW,COL)
    DRY( 10, 26)   

 CELL CONVERSIONS FOR ITER.=  6  LAYER=  1  STEP= 83  PERIOD=   2   (ROW,COL)
    DRY( 40, 18)   
   100 CALLS TO PCG ROUTINE FOR TIME STEP  83 IN STRESS PERIOD    2
   209 TOTAL ITERATIONS

 MAXIMUM HEAD CHANGE FOR EACH ITERATION (1 INDICATES THE FIRST INNER ITERATION):

    HEAD CHANGE    HEAD CHANGE    HEAD CHANGE    HEAD CHANGE    HEAD CHANGE 
   LAYER,ROW,COL  LAYER,ROW,COL  LAYER,ROW,COL  LAYER,ROW,COL  LAYER,ROW,COL
 ---------------------------------------------------------------------------
  1  0.2544      0 -0.8352E-01  0 -0.1969E-01  0 -0.4550E-02  0  0.1533E-02
   (  2, 17, 11)  (  2, 18, 11)  (  2, 14, 11)  (  2,  7, 10)  (  2,  6,  8)
  0  0.6687E-03  1  0.4572      0 -0.7549E-01  0 -0.1650E-01  0 -0.3366E-02
   (  2,  5, 11)  (  2, 10, 26)  (  2, 10, 26)  (  2, 10, 26)  (  2, 10, 26)
  0 -0.7518E-03  1 -0.1626E-01  0 -0.3996E-03  1  0.9778E-02  0  0.1712E-03
   (  1, 11, 25)  (  2, 51, 37)  (  2, 11, 19)  (  2, 55, 33)  (  2,  6,  8)
  1 -0.9752E-02  0 -0.1159E-03  1 -0.6632E-01  0 -0.6640E-02  0 -0.1197E-02
   (  2, 55, 33)  (  2, 54, 33)  (  2, 40, 18)  (  2, 38, 19)  (  2, 36, 22)
  0 -0.2400E-03  1 -0.8856E-02  0 -0.4980E-03  1  0.9096E-02  0  0.9394E-04
   (  2, 33, 24)  (  2, 55, 33)  (  2, 55, 33)  (  2, 55, 33)  (  2, 55, 33)
  1 -0.9045E-02  0 -0.8187E-04  1  0.8992E-02  0  0.7876E-04  1 -0.8945E-02
   (  2, 55, 33)  (  2, 54, 33)  (  2, 55, 33)  (  2, 54, 33)  (  2, 55, 33)
  0 -0.8011E-04  1  0.8904E-02  0  0.7838E-04  1 -0.8867E-02  0 -0.7834E-04
   (  2, 54, 33)  (  2, 55, 33)  (  2, 54, 33)  (  2, 55, 33)  (  2, 54, 33)
  1  0.8833E-02  0  0.7787E-04  1 -0.8804E-02  0 -0.7728E-04  1  0.8776E-02
   (  2, 55, 33)  (  2, 54, 33)  (  2, 55, 33)  (  2, 54, 33)  (  2, 55, 33)
  0  0.7740E-04  1 -0.8750E-02  0 -0.7652E-04  1  0.8726E-02  0  0.7692E-04
   (  2, 54, 33)  (  2, 55, 33)  (  2, 54, 33)  (  2, 55, 33)  (  2, 54, 33)
  1 -0.8705E-02  0 -0.7594E-04  1  0.8686E-02  0  0.7650E-04  1 -0.8666E-02
   (  2, 55, 33)  (  2, 54, 33)  (  2, 55, 33)  (  2, 54, 33)  (  2, 55, 33)
  0 -0.7546E-04  1  0.8648E-02  0  0.7608E-04  1 -0.8633E-02  0 -0.7505E-04
   (  2, 54, 33)  (  2, 55, 33)  (  2, 54, 33)  (  2, 55, 33)  (  2, 54, 33)
  1  0.8616E-02  0  0.7572E-04  1 -0.8603E-02  0 -0.7469E-04  1  0.8590E-02
   (  2, 55, 33)  (  2, 54, 33)  (  2, 55, 33)  (  2, 54, 33)  (  2, 55, 33)
  0  0.7540E-04  1 -0.8578E-02  0 -0.7438E-04  1  0.8565E-02  0  0.7511E-04
   (  2, 54, 33)  (  2, 55, 33)  (  2, 54, 33)  (  2, 55, 33)  (  2, 54, 33)
  1 -0.8556E-02  0 -0.7412E-04  1  0.8547E-02  0  0.7489E-04  1 -0.8537E-02
   (  2, 55, 33)  (  2, 54, 33)  (  2, 55, 33)  (  2, 54, 33)  (  2, 55, 33)
  0 -0.7390E-04  1  0.8528E-02  0  0.7468E-04  1 -0.8522E-02  0 -0.7372E-04
   (  2, 54, 33)  (  2, 55, 33)  (  2, 54, 33)  (  2, 55, 33)  (  2, 54, 33)
  1  0.8514E-02  0  0.7451E-04  1 -0.8507E-02  0 -0.7356E-04  1  0.8499E-02
   (  2, 55, 33)  (  2, 54, 33)  (  2, 55, 33)  (  2, 54, 33)  (  2, 55, 33)
  0  0.7435E-04  1 -0.8492E-02  0 -0.7340E-04  1  0.8485E-02  0  0.7420E-04
   (  2, 54, 33)  (  2, 55, 33)  (  2, 54, 33)  (  2, 55, 33)  (  2, 54, 33)
  1 -0.8478E-02  0 -0.7325E-04  1  0.8473E-02  0  0.7407E-04  1 -0.8470E-02
   (  2, 55, 33)  (  2, 54, 33)  (  2, 55, 33)  (  2, 54, 33)  (  2, 55, 33)
  0 -0.7317E-04  1  0.8466E-02  0  0.7399E-04  1 -0.8462E-02  0 -0.7309E-04
   (  2, 54, 33)  (  2, 55, 33)  (  2, 54, 33)  (  2, 55, 33)  (  2, 54, 33)
  1  0.8458E-02  0  0.7392E-04  1 -0.8456E-02  0 -0.7302E-04  1  0.8452E-02
   (  2, 55, 33)  (  2, 54, 33)  (  2, 55, 33)  (  2, 54, 33)  (  2, 55, 33)
  0  0.7385E-04  1 -0.8449E-02  0 -0.7295E-04  1  0.8444E-02  0  0.7377E-04
   (  2, 54, 33)  (  2, 55, 33)  (  2, 54, 33)  (  2, 55, 33)  (  2, 54, 33)
  1 -0.8441E-02  0 -0.7287E-04  1  0.8437E-02  0  0.7370E-04  1 -0.8434E-02
   (  2, 55, 33)  (  2, 54, 33)  (  2, 55, 33)  (  2, 54, 33)  (  2, 55, 33)
  0 -0.7280E-04  1  0.8430E-02  0  0.7363E-04  1 -0.8426E-02  0 -0.7274E-04
   (  2, 54, 33)  (  2, 55, 33)  (  2, 54, 33)  (  2, 55, 33)  (  2, 54, 33)
  1  0.8422E-02  0  0.7356E-04  1 -0.8419E-02  0 -0.7267E-04  1  0.8415E-02
   (  2, 55, 33)  (  2, 54, 33)  (  2, 55, 33)  (  2, 54, 33)  (  2, 55, 33)
  0  0.7350E-04  1 -0.8412E-02  0 -0.7261E-04  1  0.8411E-02  0  0.7346E-04
   (  2, 54, 33)  (  2, 55, 33)  (  2, 54, 33)  (  2, 55, 33)  (  2, 54, 33)
  1 -0.8411E-02  0 -0.7260E-04  1  0.8411E-02  0  0.7346E-04  1 -0.8411E-02
   (  2, 55, 33)  (  2, 54, 33)  (  2, 55, 33)  (  2, 54, 33)  (  2, 55, 33)
  0 -0.7260E-04  1  0.8411E-02  0  0.7346E-04  1 -0.8411E-02  0 -0.7260E-04
   (  2, 54, 33)  (  2, 55, 33)  (  2, 54, 33)  (  2, 55, 33)  (  2, 54, 33)
  1  0.8411E-02  0  0.7346E-04  1 -0.8411E-02  0 -0.7260E-04  1  0.8411E-02
   (  2, 55, 33)  (  2, 54, 33)  (  2, 55, 33)  (  2, 54, 33)  (  2, 55, 33)
  0  0.7345E-04  1 -0.8411E-02  0 -0.7260E-04  1  0.8411E-02  0  0.7345E-04
   (  2, 54, 33)  (  2, 55, 33)  (  2, 54, 33)  (  2, 55, 33)  (  2, 54, 33)
  1 -0.8411E-02  0 -0.7260E-04  1  0.8411E-02  0  0.7345E-04  1 -0.8411E-02
   (  2, 55, 33)  (  2, 54, 33)  (  2, 55, 33)  (  2, 54, 33)  (  2, 55, 33)
  0 -0.7260E-04  1  0.8411E-02  0  0.7345E-04  1 -0.8411E-02  0 -0.7260E-04
   (  2, 54, 33)  (  2, 55, 33)  (  2, 54, 33)  (  2, 55, 33)  (  2, 54, 33)
  1  0.8411E-02  0  0.7345E-04  1 -0.8411E-02  0 -0.7260E-04  1  0.8411E-02
   (  2, 55, 33)  (  2, 54, 33)  (  2, 55, 33)  (  2, 54, 33)  (  2, 55, 33)
  0  0.7345E-04  1 -0.8411E-02  0 -0.7260E-04  1  0.8411E-02  0  0.7345E-04
   (  2, 54, 33)  (  2, 55, 33)  (  2, 54, 33)  (  2, 55, 33)  (  2, 54, 33)
  1 -0.8411E-02  0 -0.7260E-04  1  0.8411E-02  0  0.7345E-04  1 -0.8411E-02
   (  2, 55, 33)  (  2, 54, 33)  (  2, 55, 33)  (  2, 54, 33)  (  2, 55, 33)
  0 -0.7260E-04  1  0.8411E-02  0  0.7345E-04  1 -0.8411E-02  0 -0.7260E-04
   (  2, 54, 33)  (  2, 55, 33)  (  2, 54, 33)  (  2, 55, 33)  (  2, 54, 33)
  1  0.8411E-02  0  0.7345E-04  1 -0.8411E-02  0 -0.7260E-04  1  0.8411E-02
   (  2, 55, 33)  (  2, 54, 33)  (  2, 55, 33)  (  2, 54, 33)  (  2, 55, 33)
  0  0.7345E-04  1 -0.8411E-02  0 -0.7260E-04  1  0.8411E-02  0  0.7345E-04
   (  2, 54, 33)  (  2, 55, 33)  (  2, 54, 33)  (  2, 55, 33)  (  2, 54, 33)
  1 -0.8411E-02  0 -0.7260E-04  1  0.8411E-02  0  0.7345E-04  1 -0.8411E-02
   (  2, 55, 33)  (  2, 54, 33)  (  2, 55, 33)  (  2, 54, 33)  (  2, 55, 33)
  0 -0.7260E-04  1  0.8411E-02  0  0.7345E-04  1 -0.8411E-02  0 -0.7260E-04
   (  2, 54, 33)  (  2, 55, 33)  (  2, 54, 33)  (  2, 55, 33)  (  2, 54, 33)
  1  0.8411E-02  0  0.7345E-04  1 -0.8411E-02  0 -0.7260E-04  1  0.8411E-02
   (  2, 55, 33)  (  2, 54, 33)  (  2, 55, 33)  (  2, 54, 33)  (  2, 55, 33)
  0  0.7345E-04  1 -0.8411E-02  0 -0.7260E-04  1  0.8411E-02  0  0.7345E-04
   (  2, 54, 33)  (  2, 55, 33)  (  2, 54, 33)  (  2, 55, 33)  (  2, 54, 33)
  1 -0.8411E-02  0 -0.7260E-04  1  0.8411E-02  0  0.7345E-04
   (  2, 55, 33)  (  2, 54, 33)  (  2, 55, 33)  (  2, 54, 33)

 MAXIMUM RESIDUAL FOR EACH ITERATION (1 INDICATES THE FIRST INNER ITERATION):

    RESIDUAL       RESIDUAL       RESIDUAL       RESIDUAL       RESIDUAL    
   LAYER,ROW,COL  LAYER,ROW,COL  LAYER,ROW,COL  LAYER,ROW,COL  LAYER,ROW,COL
 ---------------------------------------------------------------------------
  1  0.5511E-03  0  0.1927E-03  0  0.4643E-04  0  0.1484E-04  0  0.4581E-05
   (  2, 18, 11)  (  2, 20, 10)  (  2, 16, 12)  (  2, 13, 10)  (  2, 13, 10)
  0 -0.1488E-05  1  0.5598E-01  0  0.7044E-02  0  0.1250E-02  0  0.2466E-03
   (  2, 15, 10)  (  1, 40, 18)  (  1, 40, 18)  (  1, 40, 18)  (  1, 40, 18)
  0  0.5515E-04  1  0.1320E-04  0  0.2974E-05  1  0.2948E-04  0  0.7061E-05
   (  1, 40, 18)  (  1, 40, 18)  (  1, 40, 18)  (  1, 40, 18)  (  1, 40, 18)
  1 -0.4639E-05  0 -0.1554E-05  1  0.3781E-04  0  0.1652E-04  0  0.3733E-05
   (  2, 40, 18)  (  2, 40, 18)  (  2, 39, 19)  (  2, 39, 19)  (  2, 39, 19)
  0 -0.9404E-06  1 -0.4110E-06  0 -0.2166E-06  1  0.1170E-06  0  0.6606E-07
   (  1, 39, 19)  (  2, 39, 20)  (  2, 39, 18)  (  2, 53, 34)  (  2, 53, 34)
  1 -0.1179E-06  0 -0.5998E-07  1  0.1158E-06  0  0.6074E-07  1 -0.1150E-06
   (  2, 53, 34)  (  2, 53, 34)  (  2, 53, 34)  (  2, 53, 34)  (  2, 53, 34)
  0 -0.5928E-07  1  0.1144E-06  0  0.5985E-07  1 -0.1137E-06  0 -0.5923E-07
   (  2, 53, 34)  (  2, 53, 34)  (  2, 53, 34)  (  2, 53, 34)  (  2, 53, 34)
  1  0.1136E-06  0  0.5932E-07  1 -0.1128E-06  0 -0.5902E-07  1  0.1128E-06
   (  2, 53, 34)  (  2, 53, 34)  (  2, 53, 34)  (  2, 53, 34)  (  2, 53, 34)
  0  0.5891E-07  1 -0.1121E-06  0 -0.5878E-07  1  0.1121E-06  0  0.5858E-07
   (  2, 53, 34)  (  2, 53, 34)  (  2, 53, 34)  (  2, 53, 34)  (  2, 53, 34)
  1 -0.1114E-06  0 -0.5855E-07  1  0.1116E-06  0  0.5834E-07  1 -0.1109E-06
   (  2, 53, 34)  (  2, 53, 34)  (  2, 53, 34)  (  2, 53, 34)  (  2, 53, 34)
  0 -0.5836E-07  1  0.1111E-06  0  0.5813E-07  1 -0.1105E-06  0 -0.5819E-07
   (  2, 53, 34)  (  2, 53, 34)  (  2, 53, 34)  (  2, 53, 34)  (  2, 53, 34)
  1  0.1107E-06  0  0.5796E-07  1 -0.1101E-06  0 -0.5803E-07  1  0.1103E-06
   (  2, 53, 34)  (  2, 53, 34)  (  2, 53, 34)  (  2, 53, 34)  (  2, 53, 34)
  0  0.5781E-07  1 -0.1097E-06  0 -0.5791E-07  1  0.1100E-06  0  0.5769E-07
   (  2, 53, 34)  (  2, 53, 34)  (  2, 53, 34)  (  2, 53, 34)  (  2, 53, 34)
  1 -0.1094E-06  0 -0.5779E-07  1  0.1097E-06  0  0.5758E-07  1 -0.1092E-06
   (  2, 53, 34)  (  2, 53, 34)  (  2, 53, 34)  (  2, 53, 34)  (  2, 53, 34)
  0 -0.5770E-07  1  0.1095E-06  0  0.5749E-07  1 -0.1090E-06  0 -0.5761E-07
   (  2, 53, 34)  (  2, 53, 34)  (  2, 53, 34)  (  2, 53, 34)  (  2, 53, 34)
  1  0.1093E-06  0  0.5741E-07  1 -0.1088E-06  0 -0.5753E-07  1  0.1091E-06
   (  2, 53, 34)  (  2, 53, 34)  (  2, 53, 34)  (  2, 53, 34)  (  2, 53, 34)
  0  0.5733E-07  1 -0.1086E-06  0 -0.5745E-07  1  0.1089E-06  0  0.5725E-07
   (  2, 53, 34)  (  2, 53, 34)  (  2, 53, 34)  (  2, 53, 34)  (  2, 53, 34)
  1 -0.1084E-06  0 -0.5737E-07  1  0.1088E-06  0  0.5717E-07  1 -0.1083E-06
   (  2, 53, 34)  (  2, 53, 34)  (  2, 53, 34)  (  2, 53, 34)  (  2, 53, 34)
  0 -0.5730E-07  1  0.1087E-06  0  0.5712E-07  1 -0.1082E-06  0 -0.5726E-07
   (  2, 53, 34)  (  2, 53, 34)  (  2, 53, 34)  (  2, 53, 34)  (  2, 53, 34)
  1  0.1086E-06  0  0.5708E-07  1 -0.1081E-06  0 -0.5722E-07  1  0.1085E-06
   (  2, 53, 34)  (  2, 53, 34)  (  2, 53, 34)  (  2, 53, 34)  (  2, 53, 34)
  0  0.5703E-07  1 -0.1080E-06  0 -0.5717E-07  1  0.1084E-06  0  0.5699E-07
   (  2, 53, 34)  (  2, 53, 34)  (  2, 53, 34)  (  2, 53, 34)  (  2, 53, 34)
  1 -0.1079E-06  0 -0.5712E-07  1  0.1083E-06  0  0.5694E-07  1 -0.1078E-06
   (  2, 53, 34)  (  2, 53, 34)  (  2, 53, 34)  (  2, 53, 34)  (  2, 53, 34)
  0 -0.5708E-07  1  0.1082E-06  0  0.5689E-07  1 -0.1077E-06  0 -0.5703E-07
   (  2, 53, 34)  (  2, 53, 34)  (  2, 53, 34)  (  2, 53, 34)  (  2, 53, 34)
  1  0.1081E-06  0  0.5684E-07  1 -0.1076E-06  0 -0.5698E-07  1  0.1080E-06
   (  2, 53, 34)  (  2, 53, 34)  (  2, 53, 34)  (  2, 53, 34)  (  2, 53, 34)
  0  0.5679E-07  1 -0.1075E-06  0 -0.5693E-07  1  0.1079E-06  0  0.5675E-07
   (  2, 53, 34)  (  2, 53, 34)  (  2, 53, 34)  (  2, 53, 34)  (  2, 53, 34)
  1 -0.1075E-06  0 -0.5691E-07  1  0.1079E-06  0  0.5675E-07  1 -0.1075E-06
   (  2, 53, 34)  (  2, 53, 34)  (  2, 53, 34)  (  2, 53, 34)  (  2, 53, 34)
  0 -0.5690E-07  1  0.1079E-06  0  0.5675E-07  1 -0.1075E-06  0 -0.5691E-07
   (  2, 53, 34)  (  2, 53, 34)  (  2, 53, 34)  (  2, 53, 34)  (  2, 53, 34)
  1  0.1079E-06  0  0.5675E-07  1 -0.1075E-06  0 -0.5691E-07  1  0.1079E-06
   (  2, 53, 34)  (  2, 53, 34)  (  2, 53, 34)  (  2, 53, 34)  (  2, 53, 34)
  0  0.5675E-07  1 -0.1075E-06  0 -0.5691E-07  1  0.1079E-06  0  0.5675E-07
   (  2, 53, 34)  (  2, 53, 34)  (  2, 53, 34)  (  2, 53, 34)  (  2, 53, 34)
  1 -0.1075E-06  0 -0.5691E-07  1  0.1079E-06  0  0.5675E-07  1 -0.1075E-06
   (  2, 53, 34)  (  2, 53, 34)  (  2, 53, 34)  (  2, 53, 34)  (  2, 53, 34)
  0 -0.5691E-07  1  0.1079E-06  0  0.5675E-07  1 -0.1075E-06  0 -0.5691E-07
   (  2, 53, 34)  (  2, 53, 34)  (  2, 53, 34)  (  2, 53, 34)  (  2, 53, 34)
  1  0.1079E-06  0  0.5675E-07  1 -0.1075E-06  0 -0.5691E-07  1  0.1079E-06
   (  2, 53, 34)  (  2, 53, 34)  (  2, 53, 34)  (  2, 53, 34)  (  2, 53, 34)
  0  0.5675E-07  1 -0.1075E-06  0 -0.5691E-07  1  0.1079E-06  0  0.5675E-07
   (  2, 53, 34)  (  2, 53, 34)  (  2, 53, 34)  (  2, 53, 34)  (  2, 53, 34)
  1 -0.1075E-06  0 -0.5691E-07  1  0.1079E-06  0  0.5675E-07  1 -0.1075E-06
   (  2, 53, 34)  (  2, 53, 34)  (  2, 53, 34)  (  2, 53, 34)  (  2, 53, 34)
  0 -0.5691E-07  1  0.1079E-06  0  0.5675E-07  1 -0.1075E-06  0 -0.5691E-07
   (  2, 53, 34)  (  2, 53, 34)  (  2, 53, 34)  (  2, 53, 34)  (  2, 53, 34)
  1  0.1079E-06  0  0.5675E-07  1 -0.1075E-06  0 -0.5691E-07  1  0.1079E-06
   (  2, 53, 34)  (  2, 53, 34)  (  2, 53, 34)  (  2, 53, 34)  (  2, 53, 34)
  0  0.5675E-07  1 -0.1075E-06  0 -0.5691E-07  1  0.1079E-06  0  0.5675E-07
   (  2, 53, 34)  (  2, 53, 34)  (  2, 53, 34)  (  2, 53, 34)  (  2, 53, 34)
  1 -0.1075E-06  0 -0.5691E-07  1  0.1079E-06  0  0.5675E-07  1 -0.1075E-06
   (  2, 53, 34)  (  2, 53, 34)  (  2, 53, 34)  (  2, 53, 34)  (  2, 53, 34)
  0 -0.5691E-07  1  0.1079E-06  0  0.5675E-07  1 -0.1075E-06  0 -0.5691E-07
   (  2, 53, 34)  (  2, 53, 34)  (  2, 53, 34)  (  2, 53, 34)  (  2, 53, 34)
  1  0.1079E-06  0  0.5675E-07  1 -0.1075E-06  0 -0.5691E-07  1  0.1079E-06
   (  2, 53, 34)  (  2, 53, 34)  (  2, 53, 34)  (  2, 53, 34)  (  2, 53, 34)
  0  0.5675E-07  1 -0.1075E-06  0 -0.5691E-07  1  0.1079E-06  0  0.5675E-07
   (  2, 53, 34)  (  2, 53, 34)  (  2, 53, 34)  (  2, 53, 34)  (  2, 53, 34)
  1 -0.1075E-06  0 -0.5691E-07  1  0.1079E-06  0  0.5675E-07
   (  2, 53, 34)  (  2, 53, 34)  (  2, 53, 34)  (  2, 53, 34)



 OUTPUT CONTROL FOR STRESS PERIOD    2   TIME STEP   83
    SAVE HEAD FOR ALL LAYERS
    SAVE DRAWDOWN FOR ALL LAYERS
    SAVE BUDGET
    PRINT BUDGET
 UBDSV1 SAVING "         STORAGE" ON UNIT   9 AT TIME STEP 83, STRESS PERIOD   2
 UBDSV2 SAVING "   CONSTANT HEAD" ON UNIT   9 AT TIME STEP 83, STRESS PERIOD   2
 UBDSV1 SAVING "FLOW RIGHT FACE " ON UNIT   9 AT TIME STEP 83, STRESS PERIOD   2
 UBDSV1 SAVING "FLOW FRONT FACE " ON UNIT   9 AT TIME STEP 83, STRESS PERIOD   2
 UBDSV1 SAVING "FLOW LOWER FACE " ON UNIT   9 AT TIME STEP 83, STRESS PERIOD   2
 UBDSV4 SAVING "           WELLS" ON UNIT   9 AT TIME STEP 83, STRESS PERIOD   2
 UBDSV4 SAVING "   RIVER LEAKAGE" ON UNIT   9 AT TIME STEP 83, STRESS PERIOD   2
 UBDSV3 SAVING "              ET" ON UNIT   9 AT TIME STEP 83, STRESS PERIOD   2
 UBDSV4 SAVING " HEAD DEP BOUNDS" ON UNIT   9 AT TIME STEP 83, STRESS PERIOD   2
 UBDSV3 SAVING "        RECHARGE" ON UNIT   9 AT TIME STEP 83, STRESS PERIOD   2
 SOLVING FOR ZETA FOR LAYER     1 ZONE     2
     2 CALLS TO PCG ROUTINE FOR TIME STEP  83 IN STRESS PERIOD    2
     4 TOTAL ITERATIONS

 MAXIMUM HEAD CHANGE FOR EACH ITERATION (1 INDICATES THE FIRST INNER ITERATION):

    HEAD CHANGE    HEAD CHANGE    HEAD CHANGE    HEAD CHANGE    HEAD CHANGE 
   LAYER,ROW,COL  LAYER,ROW,COL  LAYER,ROW,COL  LAYER,ROW,COL  LAYER,ROW,COL
 ---------------------------------------------------------------------------
  1   10.20      0  0.2845E-01  0  0.2840E-03  1 -0.2697E-05
   (  1, 14,  9)  (  1, 13, 10)  (  1, 25,  6)  (  1, 13, 10)

 MAXIMUM RESIDUAL FOR EACH ITERATION (1 INDICATES THE FIRST INNER ITERATION):

    RESIDUAL       RESIDUAL       RESIDUAL       RESIDUAL       RESIDUAL    
   LAYER,ROW,COL  LAYER,ROW,COL  LAYER,ROW,COL  LAYER,ROW,COL  LAYER,ROW,COL
 ---------------------------------------------------------------------------
  1 -0.8106E-05  0 -0.9705E-07  0  0.7751E-09  1 -0.1630E-10
   (  1, 13, 10)  (  1, 25,  6)  (  1, 13, 10)  (  1, 25,  6)


 SOLVING FOR ZETA FOR LAYER     2 ZONE     2
     2 CALLS TO PCG ROUTINE FOR TIME STEP  83 IN STRESS PERIOD    2
     4 TOTAL ITERATIONS

 MAXIMUM HEAD CHANGE FOR EACH ITERATION (1 INDICATES THE FIRST INNER ITERATION):

    HEAD CHANGE    HEAD CHANGE    HEAD CHANGE    HEAD CHANGE    HEAD CHANGE 
   LAYER,ROW,COL  LAYER,ROW,COL  LAYER,ROW,COL  LAYER,ROW,COL  LAYER,ROW,COL
 ---------------------------------------------------------------------------
  1   4.959      0  0.4325E-01  0  0.4590E-03  1  0.6122E-05
   (  1, 17, 11)  (  1, 12, 10)  (  1, 11, 11)  (  1, 28,  6)

 MAXIMUM RESIDUAL FOR EACH ITERATION (1 INDICATES THE FIRST INNER ITERATION):

    RESIDUAL       RESIDUAL       RESIDUAL       RESIDUAL       RESIDUAL    
   LAYER,ROW,COL  LAYER,ROW,COL  LAYER,ROW,COL  LAYER,ROW,COL  LAYER,ROW,COL
 ---------------------------------------------------------------------------
  1 -0.1452E-04  0 -0.1529E-06  0 -0.2241E-08  1 -0.5675E-10
   (  1,  7,  9)  (  1, 29,  5)  (  1, 30,  4)  (  1, 29,  5)


 UBUDSV SAVING "      ZETASRF  1" ON UNIT170 AT TIME STEP 83, STRESS PERIOD    2


                      VOLUMETRIC SWI ZONE BUDGET FOR ENTIRE MODEL
                     AT END OF TIME STEP   83 IN STRESS PERIOD   2
                                      ZONE     1
  -----------------------------------------------------------------------------------

        CUMULATIVE VOLUMES      L**3       RATES FOR THIS TIME STEP      L**3/T
        ------------------                 ------------------------

              IN:                                      IN:
              ---                                      ---
             BOUNDARIES =   783741504.0000            BOUNDARIES =           0.1876
          CONSTANT HEAD =           0.0000         CONSTANT HEAD =           0.0000
            ZONE CHANGE =   202317984.0000           ZONE CHANGE =       5.2664E-02
       ZONE CHG TIP/TOE =    11720384.0000      ZONE CHG TIP/TOE =       6.4513E-03
            ZONE MIXING =           0.0000           ZONE MIXING =           0.0000

               TOTAL IN =   997779840.0000              TOTAL IN =           0.2467

             OUT:                                     OUT:
             ----                                     ----
             BOUNDARIES =   893373568.0000            BOUNDARIES =           0.2364
          CONSTANT HEAD =           0.0000         CONSTANT HEAD =           0.0000
            ZONE CHANGE =    32506198.0000           ZONE CHANGE =       5.9241E-03
       ZONE CHG TIP/TOE =     9255198.0000      ZONE CHG TIP/TOE =       5.4560E-03
            ZONE MIXING =     1099185.5000           ZONE MIXING =           0.0000

              TOTAL OUT =   936234176.0000             TOTAL OUT =           0.2478

               IN - OUT =    61545664.0000              IN - OUT =      -1.0906E-03

    PERCENT DISCREPANCY =           6.36     PERCENT DISCREPANCY =          -0.44



                      VOLUMETRIC SWI ZONE BUDGET FOR ENTIRE MODEL
                     AT END OF TIME STEP   83 IN STRESS PERIOD   2
                                      ZONE     2
  -----------------------------------------------------------------------------------

        CUMULATIVE VOLUMES      L**3       RATES FOR THIS TIME STEP      L**3/T
        ------------------                 ------------------------

              IN:                                      IN:
              ---                                      ---
             BOUNDARIES =   122488984.0000            BOUNDARIES =           0.1306
          CONSTANT HEAD =           0.0000         CONSTANT HEAD =           0.0000
            ZONE CHANGE =    27619356.0000           ZONE CHANGE =       5.2377E-03
       ZONE CHG TIP/TOE =    22211630.0000      ZONE CHG TIP/TOE =       1.0080E-02
            ZONE MIXING =     1099185.5000           ZONE MIXING =           0.0000

               TOTAL IN =   173419152.0000              TOTAL IN =           0.1459

             OUT:                                     OUT:
             ----                                     ----
             BOUNDARIES =   107247840.0000            BOUNDARIES =           0.1162
          CONSTANT HEAD =           0.0000         CONSTANT HEAD =           0.0000
            ZONE CHANGE =    60818960.0000           ZONE CHANGE =       2.8536E-02
       ZONE CHG TIP/TOE =     7403682.5000      ZONE CHG TIP/TOE =       5.7929E-03
            ZONE MIXING =           0.0000           ZONE MIXING =           0.0000

              TOTAL OUT =   175470480.0000             TOTAL OUT =           0.1505

               IN - OUT =    -2051328.0000              IN - OUT =      -4.6364E-03

    PERCENT DISCREPANCY =          -1.18     PERCENT DISCREPANCY =          -3.13


         ****FAILED TO MEET SOLVER CONVERGENCE CRITERIA IN TIME STEP   83 OF STRESS PERIOD    2****

 HEAD WILL BE SAVED ON UNIT   37 AT END OF TIME STEP   83, STRESS PERIOD    2

 DRAWDOWN WILL BE SAVED ON UNIT   38 AT END OF TIME STEP   83, STRESS PERIOD    2
1
  VOLUMETRIC BUDGET FOR ENTIRE MODEL AT END OF TIME STEP   83, STRESS PERIOD   2
  ------------------------------------------------------------------------------

     CUMULATIVE VOLUMES      L**3       RATES FOR THIS TIME STEP      L**3/T
     ------------------                 ------------------------

           IN:                                      IN:
           ---                                      ---
             STORAGE =    89033120.0000               STORAGE =       3.4861E-02
       CONSTANT HEAD =           0.0000         CONSTANT HEAD =           0.0000
               WELLS =           0.0000                 WELLS =           0.0000
       RIVER LEAKAGE =   163216704.0000         RIVER LEAKAGE =       3.6000E-02
                  ET =           0.0000                    ET =           0.0000
     HEAD DEP BOUNDS =   133140680.0000       HEAD DEP BOUNDS =           0.1337
            RECHARGE =   661822528.0000              RECHARGE =           0.1682
          SWIADDTOCH =           0.0000            SWIADDTOCH =           0.0000

            TOTAL IN =  1047213056.0000              TOTAL IN =           0.3728

          OUT:                                     OUT:
          ----                                     ----
             STORAGE =      111138.3906               STORAGE =       4.1060E-04
       CONSTANT HEAD =           0.0000         CONSTANT HEAD =           0.0000
               WELLS =   502368352.0000                 WELLS =           0.3720
       RIVER LEAKAGE =    21630804.0000         RIVER LEAKAGE =           0.0000
                  ET =   166413648.0000                    ET =           0.0000
     HEAD DEP BOUNDS =   356701440.0000       HEAD DEP BOUNDS =       3.8472E-04
            RECHARGE =           0.0000              RECHARGE =           0.0000
          SWIADDTOCH =           0.0000            SWIADDTOCH =           0.0000

           TOTAL OUT =  1047225408.0000             TOTAL OUT =           0.3728

            IN - OUT =      -12352.0000              IN - OUT =           0.0000

 PERCENT DISCREPANCY =          -0.00     PERCENT DISCREPANCY =           0.00






         TIME SUMMARY AT END OF TIME STEP   83 IN STRESS PERIOD    2
                    SECONDS     MINUTES      HOURS       DAYS        YEARS
                    -----------------------------------------------------------
   TIME STEP LENGTH 1.57680E+07 2.62800E+05  4380.0      182.50     0.49966    
 STRESS PERIOD TIME 1.30874E+09 2.18124E+07 3.63540E+05  15148.      41.472    
         TOTAL TIME 4.46235E+09 7.43725E+07 1.23954E+06  51648.      141.40    
1
 FAILURE TO MEET SOLVER CONVERGENCE CRITERIA
 BUDGET PERCENT DISCREPANCY IS    0.0000
 CONTINUING EXECUTION
 
 SOLVING FOR HEAD 

 CELL CONVERSIONS FOR ITER.=  2  LAYER=  1  STEP= 84  PERIOD=   2   (ROW,COL)
    DRY( 42, 22)   

 CELL CONVERSIONS FOR ITER.=  2  LAYER=  2  STEP= 84  PERIOD=   2   (ROW,COL)
    DRY( 55, 33)   

 ISOLATED CELL IS BEING ELIMINATED (LAYER,ROW,COL):     2    56    33
 (PCG7AP)
     7 CALLS TO PCG ROUTINE FOR TIME STEP  84 IN STRESS PERIOD    2
    19 TOTAL ITERATIONS

 MAXIMUM HEAD CHANGE FOR EACH ITERATION (1 INDICATES THE FIRST INNER ITERATION):

    HEAD CHANGE    HEAD CHANGE    HEAD CHANGE    HEAD CHANGE    HEAD CHANGE 
   LAYER,ROW,COL  LAYER,ROW,COL  LAYER,ROW,COL  LAYER,ROW,COL  LAYER,ROW,COL
 ---------------------------------------------------------------------------
  1 -0.3396      0 -0.9222E-01  0 -0.1945E-01  0 -0.5633E-02  0  0.1340E-02
   (  2, 17, 11)  (  2, 16, 12)  (  1, 18, 12)  (  1, 18, 11)  (  2, 18, 10)
  0  0.4009E-03  1 -0.3465E-01  0  0.1108E-01  0  0.2596E-02  0  0.6868E-03
   (  2,  7,  9)  (  2, 42, 22)  (  2, 51, 37)  (  2, 51, 37)  (  2, 51, 37)
  1 -0.2092E-01  0 -0.5515E-03  1  0.9874E-02  0  0.4230E-03  1 -0.4635E-02
   (  2, 51, 37)  (  2, 51, 37)  (  2, 51, 37)  (  2, 51, 37)  (  2, 51, 37)
  0 -0.2569E-03  1  0.2135E-02  0  0.1442E-03  1 -0.9753E-03
   (  2, 51, 37)  (  2, 51, 37)  (  2, 51, 37)  (  2, 51, 37)

 MAXIMUM RESIDUAL FOR EACH ITERATION (1 INDICATES THE FIRST INNER ITERATION):

    RESIDUAL       RESIDUAL       RESIDUAL       RESIDUAL       RESIDUAL    
   LAYER,ROW,COL  LAYER,ROW,COL  LAYER,ROW,COL  LAYER,ROW,COL  LAYER,ROW,COL
 ---------------------------------------------------------------------------
  1 -0.5139E-03  0 -0.2205E-03  0  0.4644E-04  0 -0.1469E-04  0  0.4026E-05
   (  2, 17, 11)  (  2, 17, 11)  (  1, 18, 11)  (  2, 18, 10)  (  2, 17, 12)
  0 -0.1616E-05  1  0.1999E-04  0  0.9077E-05  0  0.2530E-05  0  0.5177E-06
   (  1, 17, 12)  (  2, 42, 22)  (  2, 43, 21)  (  2, 43, 21)  (  2, 40, 24)
  1  0.6857E-06  0  0.3516E-06  1 -0.3996E-06  0 -0.2443E-06  1  0.1933E-06
   (  2, 50, 37)  (  2, 50, 37)  (  2, 50, 37)  (  2, 50, 37)  (  2, 50, 37)
  0  0.1252E-06  1  0.1094E-06  0 -0.6073E-07  1  0.5656E-07
   (  2, 50, 37)  (  2,  5, 11)  (  2, 50, 37)  (  2,  5, 11)



 OUTPUT CONTROL FOR STRESS PERIOD    2   TIME STEP   84
    SAVE HEAD FOR ALL LAYERS
    SAVE DRAWDOWN FOR ALL LAYERS
    SAVE BUDGET
    PRINT BUDGET
 UBDSV1 SAVING "         STORAGE" ON UNIT   9 AT TIME STEP 84, STRESS PERIOD   2
 UBDSV2 SAVING "   CONSTANT HEAD" ON UNIT   9 AT TIME STEP 84, STRESS PERIOD   2
 UBDSV1 SAVING "FLOW RIGHT FACE " ON UNIT   9 AT TIME STEP 84, STRESS PERIOD   2
 UBDSV1 SAVING "FLOW FRONT FACE " ON UNIT   9 AT TIME STEP 84, STRESS PERIOD   2
 UBDSV1 SAVING "FLOW LOWER FACE " ON UNIT   9 AT TIME STEP 84, STRESS PERIOD   2
 UBDSV4 SAVING "           WELLS" ON UNIT   9 AT TIME STEP 84, STRESS PERIOD   2
 UBDSV4 SAVING "   RIVER LEAKAGE" ON UNIT   9 AT TIME STEP 84, STRESS PERIOD   2
 UBDSV3 SAVING "              ET" ON UNIT   9 AT TIME STEP 84, STRESS PERIOD   2
 UBDSV4 SAVING " HEAD DEP BOUNDS" ON UNIT   9 AT TIME STEP 84, STRESS PERIOD   2
 UBDSV3 SAVING "        RECHARGE" ON UNIT   9 AT TIME STEP 84, STRESS PERIOD   2
 SOLVING FOR ZETA FOR LAYER     1 ZONE     2
     2 CALLS TO PCG ROUTINE FOR TIME STEP  84 IN STRESS PERIOD    2
     4 TOTAL ITERATIONS

 MAXIMUM HEAD CHANGE FOR EACH ITERATION (1 INDICATES THE FIRST INNER ITERATION):

    HEAD CHANGE    HEAD CHANGE    HEAD CHANGE    HEAD CHANGE    HEAD CHANGE 
   LAYER,ROW,COL  LAYER,ROW,COL  LAYER,ROW,COL  LAYER,ROW,COL  LAYER,ROW,COL
 ---------------------------------------------------------------------------
  1   33.98      0  0.1561      0  0.5392E-03  1  0.7945E-05
   (  1, 18, 10)  (  1, 21,  8)  (  1, 25,  6)  (  1, 24,  7)

 MAXIMUM RESIDUAL FOR EACH ITERATION (1 INDICATES THE FIRST INNER ITERATION):

    RESIDUAL       RESIDUAL       RESIDUAL       RESIDUAL       RESIDUAL    
   LAYER,ROW,COL  LAYER,ROW,COL  LAYER,ROW,COL  LAYER,ROW,COL  LAYER,ROW,COL
 ---------------------------------------------------------------------------
  1 -0.4432E-04  0 -0.1906E-06  0 -0.2369E-08  1 -0.4763E-10
   (  1, 21,  8)  (  1, 25,  6)  (  1, 24,  7)  (  1, 25,  6)


 SOLVING FOR ZETA FOR LAYER     2 ZONE     2
     2 CALLS TO PCG ROUTINE FOR TIME STEP  84 IN STRESS PERIOD    2
     4 TOTAL ITERATIONS

 MAXIMUM HEAD CHANGE FOR EACH ITERATION (1 INDICATES THE FIRST INNER ITERATION):

    HEAD CHANGE    HEAD CHANGE    HEAD CHANGE    HEAD CHANGE    HEAD CHANGE 
   LAYER,ROW,COL  LAYER,ROW,COL  LAYER,ROW,COL  LAYER,ROW,COL  LAYER,ROW,COL
 ---------------------------------------------------------------------------
  1  -6.728      0  0.4402E-01  0  0.4045E-03  1  0.6496E-05
   (  1, 17, 12)  (  1,  7,  9)  (  1, 29,  5)  (  1, 28,  6)

 MAXIMUM RESIDUAL FOR EACH ITERATION (1 INDICATES THE FIRST INNER ITERATION):

    RESIDUAL       RESIDUAL       RESIDUAL       RESIDUAL       RESIDUAL    
   LAYER,ROW,COL  LAYER,ROW,COL  LAYER,ROW,COL  LAYER,ROW,COL  LAYER,ROW,COL
 ---------------------------------------------------------------------------
  1 -0.1487E-04  0 -0.1464E-06  0 -0.2127E-08  1 -0.6071E-10
   (  1,  7,  9)  (  1, 29,  5)  (  1, 30,  4)  (  1, 29,  4)


 UBUDSV SAVING "      ZETASRF  1" ON UNIT170 AT TIME STEP 84, STRESS PERIOD    2


                      VOLUMETRIC SWI ZONE BUDGET FOR ENTIRE MODEL
                     AT END OF TIME STEP   84 IN STRESS PERIOD   2
                                      ZONE     1
  -----------------------------------------------------------------------------------

        CUMULATIVE VOLUMES      L**3       RATES FOR THIS TIME STEP      L**3/T
        ------------------                 ------------------------

              IN:                                      IN:
              ---                                      ---
             BOUNDARIES =   786698048.0000            BOUNDARIES =           0.1875
          CONSTANT HEAD =           0.0000         CONSTANT HEAD =           0.0000
            ZONE CHANGE =   203110928.0000           ZONE CHANGE =       5.0288E-02
       ZONE CHG TIP/TOE =    11826465.0000      ZONE CHG TIP/TOE =       6.7276E-03
            ZONE MIXING =           0.0000           ZONE MIXING =           0.0000

               TOTAL IN =  1001635456.0000              TOTAL IN =           0.2445

             OUT:                                     OUT:
             ----                                     ----
             BOUNDARIES =   897788928.0000            BOUNDARIES =           0.2800
          CONSTANT HEAD =           0.0000         CONSTANT HEAD =           0.0000
            ZONE CHANGE =    32623348.0000           ZONE CHANGE =       7.4296E-03
       ZONE CHG TIP/TOE =     9344552.0000      ZONE CHG TIP/TOE =       5.6668E-03
            ZONE MIXING =     1099185.5000           ZONE MIXING =           0.0000

              TOTAL OUT =   940856000.0000             TOTAL OUT =           0.2931

               IN - OUT =    60779456.0000              IN - OUT =      -4.8600E-02

    PERCENT DISCREPANCY =           6.26     PERCENT DISCREPANCY =         -18.08



                      VOLUMETRIC SWI ZONE BUDGET FOR ENTIRE MODEL
                     AT END OF TIME STEP   84 IN STRESS PERIOD   2
                                      ZONE     2
  -----------------------------------------------------------------------------------

        CUMULATIVE VOLUMES      L**3       RATES FOR THIS TIME STEP      L**3/T
        ------------------                 ------------------------

              IN:                                      IN:
              ---                                      ---
             BOUNDARIES =   124555144.0000            BOUNDARIES =           0.1310
          CONSTANT HEAD =           0.0000         CONSTANT HEAD =           0.0000
            ZONE CHANGE =    27719114.0000           ZONE CHANGE =       6.3266E-03
       ZONE CHG TIP/TOE =    23052322.0000      ZONE CHG TIP/TOE =       5.3316E-02
            ZONE MIXING =     1099185.5000           ZONE MIXING =           0.0000

               TOTAL IN =   176425760.0000              TOTAL IN =           0.1907

             OUT:                                     OUT:
             ----                                     ----
             BOUNDARIES =   108391440.0000            BOUNDARIES =       7.2527E-02
          CONSTANT HEAD =           0.0000         CONSTANT HEAD =           0.0000
            ZONE CHANGE =    61922884.0000           ZONE CHANGE =       7.0010E-02
       ZONE CHG TIP/TOE =     7485594.0000      ZONE CHG TIP/TOE =       5.1948E-03
            ZONE MIXING =           0.0000           ZONE MIXING =           0.0000

              TOTAL OUT =   177799920.0000             TOTAL OUT =           0.1477

               IN - OUT =    -1374160.0000              IN - OUT =       4.2946E-02

    PERCENT DISCREPANCY =          -0.78     PERCENT DISCREPANCY =          25.38


 HEAD WILL BE SAVED ON UNIT   37 AT END OF TIME STEP   84, STRESS PERIOD    2

 DRAWDOWN WILL BE SAVED ON UNIT   38 AT END OF TIME STEP   84, STRESS PERIOD    2
1
  VOLUMETRIC BUDGET FOR ENTIRE MODEL AT END OF TIME STEP   84, STRESS PERIOD   2
  ------------------------------------------------------------------------------

     CUMULATIVE VOLUMES      L**3       RATES FOR THIS TIME STEP      L**3/T
     ------------------                 ------------------------

           IN:                                      IN:
           ---                                      ---
             STORAGE =    89571168.0000               STORAGE =       3.4123E-02
       CONSTANT HEAD =           0.0000         CONSTANT HEAD =           0.0000
               WELLS =           0.0000                 WELLS =           0.0000
       RIVER LEAKAGE =   163784352.0000         RIVER LEAKAGE =       3.6000E-02
                  ET =           0.0000                    ET =           0.0000
     HEAD DEP BOUNDS =   135258704.0000       HEAD DEP BOUNDS =           0.1343
            RECHARGE =   664471552.0000              RECHARGE =           0.1680
          SWIADDTOCH =           0.0000            SWIADDTOCH =           0.0000

            TOTAL IN =  1053085760.0000              TOTAL IN =           0.3724

          OUT:                                     OUT:
          ----                                     ----
             STORAGE =      112898.5156               STORAGE =       1.1163E-04
       CONSTANT HEAD =           0.0000         CONSTANT HEAD =           0.0000
               WELLS =   508234048.0000                 WELLS =           0.3720
       RIVER LEAKAGE =    21630804.0000         RIVER LEAKAGE =           0.0000
                  ET =   166413648.0000                    ET =           0.0000
     HEAD DEP BOUNDS =   356706720.0000       HEAD DEP BOUNDS =       3.3396E-04
            RECHARGE =           0.0000              RECHARGE =           0.0000
          SWIADDTOCH =           0.0000            SWIADDTOCH =           0.0000

           TOTAL OUT =  1053098112.0000             TOTAL OUT =           0.3724

            IN - OUT =      -12352.0000              IN - OUT =           0.0000

 PERCENT DISCREPANCY =          -0.00     PERCENT DISCREPANCY =           0.00






         TIME SUMMARY AT END OF TIME STEP   84 IN STRESS PERIOD    2
                    SECONDS     MINUTES      HOURS       DAYS        YEARS
                    -----------------------------------------------------------
   TIME STEP LENGTH 1.57680E+07 2.62800E+05  4380.0      182.50     0.49966    
 STRESS PERIOD TIME 1.32451E+09 2.20752E+07 3.67920E+05  15330.      41.971    
         TOTAL TIME 4.47812E+09 7.46353E+07 1.24392E+06  51830.      141.90    
1
 
 SOLVING FOR HEAD 
    10 CALLS TO PCG ROUTINE FOR TIME STEP  85 IN STRESS PERIOD    2
    25 TOTAL ITERATIONS

 MAXIMUM HEAD CHANGE FOR EACH ITERATION (1 INDICATES THE FIRST INNER ITERATION):

    HEAD CHANGE    HEAD CHANGE    HEAD CHANGE    HEAD CHANGE    HEAD CHANGE 
   LAYER,ROW,COL  LAYER,ROW,COL  LAYER,ROW,COL  LAYER,ROW,COL  LAYER,ROW,COL
 ---------------------------------------------------------------------------
  1  0.2622      0  0.8491E-01  0 -0.2290E-01  0  0.6961E-02  0 -0.2424E-02
   (  2, 17, 11)  (  2, 16, 12)  (  2, 17, 11)  (  2,  5, 11)  (  2,  5, 11)
  0  0.5574E-03  1  0.2913E-01  0  0.1102E-01  0  0.2348E-02  0  0.4672E-03
   (  2, 19,  9)  (  2, 51, 37)  (  2, 51, 37)  (  2, 51, 37)  (  2, 51, 37)
  1 -0.2678E-01  0 -0.5683E-03  1  0.1641E-01  0  0.4449E-03  1 -0.1010E-01
   (  2, 51, 37)  (  2, 51, 37)  (  2, 51, 37)  (  2, 51, 37)  (  2, 51, 37)
  0 -0.3048E-03  1  0.6128E-02  0  0.2095E-03  1 -0.3733E-02  0 -0.1308E-03
   (  2, 51, 37)  (  2, 51, 37)  (  2, 51, 37)  (  2, 51, 37)  (  2, 51, 37)
  1  0.2260E-02  0  0.8495E-04  1 -0.1373E-02  0 -0.5041E-04  1  0.8303E-03
   (  2, 51, 37)  (  2, 51, 37)  (  2, 51, 37)  (  2, 51, 37)  (  2, 51, 37)

 MAXIMUM RESIDUAL FOR EACH ITERATION (1 INDICATES THE FIRST INNER ITERATION):

    RESIDUAL       RESIDUAL       RESIDUAL       RESIDUAL       RESIDUAL    
   LAYER,ROW,COL  LAYER,ROW,COL  LAYER,ROW,COL  LAYER,ROW,COL  LAYER,ROW,COL
 ---------------------------------------------------------------------------
  1 -0.5261E-03  0  0.2164E-03  0  0.6221E-04  0 -0.1661E-04  0  0.6585E-05
   (  2, 20, 10)  (  2, 17, 11)  (  2, 19, 10)  (  2, 19, 11)  (  2, 22,  9)
  0 -0.1860E-05  1  0.7968E-05  0  0.1884E-05  0  0.6626E-06  0  0.1801E-06
   (  2, 19, 10)  (  2, 22,  8)  (  2, 17, 11)  (  2, 17, 11)  (  2, 20,  9)
  1  0.8591E-06  0  0.3591E-06  1 -0.6104E-06  0 -0.3115E-06  1  0.3802E-06
   (  2, 50, 37)  (  2, 50, 37)  (  2, 50, 37)  (  2, 50, 37)  (  2, 50, 37)
  0  0.2057E-06  1 -0.2340E-06  0 -0.1346E-06  1  0.1434E-06  0  0.8206E-07
   (  2, 50, 37)  (  2, 50, 37)  (  2, 50, 37)  (  2, 50, 37)  (  2, 50, 37)
  1 -0.8623E-07  0 -0.5150E-07  1  0.5317E-07  0  0.3064E-07  1 -0.3155E-07
   (  2, 50, 37)  (  2, 50, 37)  (  2, 50, 37)  (  2, 50, 37)  (  2, 50, 37)



 OUTPUT CONTROL FOR STRESS PERIOD    2   TIME STEP   85
    SAVE HEAD FOR ALL LAYERS
    SAVE DRAWDOWN FOR ALL LAYERS
    SAVE BUDGET
    PRINT BUDGET
 UBDSV1 SAVING "         STORAGE" ON UNIT   9 AT TIME STEP 85, STRESS PERIOD   2
 UBDSV2 SAVING "   CONSTANT HEAD" ON UNIT   9 AT TIME STEP 85, STRESS PERIOD   2
 UBDSV1 SAVING "FLOW RIGHT FACE " ON UNIT   9 AT TIME STEP 85, STRESS PERIOD   2
 UBDSV1 SAVING "FLOW FRONT FACE " ON UNIT   9 AT TIME STEP 85, STRESS PERIOD   2
 UBDSV1 SAVING "FLOW LOWER FACE " ON UNIT   9 AT TIME STEP 85, STRESS PERIOD   2
 UBDSV4 SAVING "           WELLS" ON UNIT   9 AT TIME STEP 85, STRESS PERIOD   2
 UBDSV4 SAVING "   RIVER LEAKAGE" ON UNIT   9 AT TIME STEP 85, STRESS PERIOD   2
 UBDSV3 SAVING "              ET" ON UNIT   9 AT TIME STEP 85, STRESS PERIOD   2
 UBDSV4 SAVING " HEAD DEP BOUNDS" ON UNIT   9 AT TIME STEP 85, STRESS PERIOD   2
 UBDSV3 SAVING "        RECHARGE" ON UNIT   9 AT TIME STEP 85, STRESS PERIOD   2
 SOLVING FOR ZETA FOR LAYER     1 ZONE     2
     2 CALLS TO PCG ROUTINE FOR TIME STEP  85 IN STRESS PERIOD    2
     4 TOTAL ITERATIONS

 MAXIMUM HEAD CHANGE FOR EACH ITERATION (1 INDICATES THE FIRST INNER ITERATION):

    HEAD CHANGE    HEAD CHANGE    HEAD CHANGE    HEAD CHANGE    HEAD CHANGE 
   LAYER,ROW,COL  LAYER,ROW,COL  LAYER,ROW,COL  LAYER,ROW,COL  LAYER,ROW,COL
 ---------------------------------------------------------------------------
  1   16.83      0  0.2959E-01  0  0.5042E-03  1  0.2580E-05
   (  1, 19, 10)  (  1, 24,  7)  (  1, 25,  6)  (  1, 26,  5)

 MAXIMUM RESIDUAL FOR EACH ITERATION (1 INDICATES THE FIRST INNER ITERATION):

    RESIDUAL       RESIDUAL       RESIDUAL       RESIDUAL       RESIDUAL    
   LAYER,ROW,COL  LAYER,ROW,COL  LAYER,ROW,COL  LAYER,ROW,COL  LAYER,ROW,COL
 ---------------------------------------------------------------------------
  1 -0.9121E-05  0 -0.1775E-06  0 -0.7873E-09  1 -0.1885E-10
   (  1, 24,  7)  (  1, 25,  6)  (  1, 26,  5)  (  1, 25,  6)


 SOLVING FOR ZETA FOR LAYER     2 ZONE     2
     2 CALLS TO PCG ROUTINE FOR TIME STEP  85 IN STRESS PERIOD    2
     4 TOTAL ITERATIONS

 MAXIMUM HEAD CHANGE FOR EACH ITERATION (1 INDICATES THE FIRST INNER ITERATION):

    HEAD CHANGE    HEAD CHANGE    HEAD CHANGE    HEAD CHANGE    HEAD CHANGE 
   LAYER,ROW,COL  LAYER,ROW,COL  LAYER,ROW,COL  LAYER,ROW,COL  LAYER,ROW,COL
 ---------------------------------------------------------------------------
  1   5.464      0  0.4721E-01  0  0.4551E-03  1  0.9554E-05
   (  1, 17, 11)  (  1, 10, 10)  (  1, 29,  5)  (  1, 28,  6)

 MAXIMUM RESIDUAL FOR EACH ITERATION (1 INDICATES THE FIRST INNER ITERATION):

    RESIDUAL       RESIDUAL       RESIDUAL       RESIDUAL       RESIDUAL    
   LAYER,ROW,COL  LAYER,ROW,COL  LAYER,ROW,COL  LAYER,ROW,COL  LAYER,ROW,COL
 ---------------------------------------------------------------------------
  1 -0.1612E-04  0 -0.1710E-06  0 -0.3148E-08  1 -0.7866E-10
   (  1, 10, 10)  (  1, 29,  5)  (  1, 28,  6)  (  1, 29,  5)


 UBUDSV SAVING "      ZETASRF  1" ON UNIT170 AT TIME STEP 85, STRESS PERIOD    2


                      VOLUMETRIC SWI ZONE BUDGET FOR ENTIRE MODEL
                     AT END OF TIME STEP   85 IN STRESS PERIOD   2
                                      ZONE     1
  -----------------------------------------------------------------------------------

        CUMULATIVE VOLUMES      L**3       RATES FOR THIS TIME STEP      L**3/T
        ------------------                 ------------------------

              IN:                                      IN:
              ---                                      ---
             BOUNDARIES =   789656128.0000            BOUNDARIES =           0.1876
          CONSTANT HEAD =           0.0000         CONSTANT HEAD =           0.0000
            ZONE CHANGE =   203866176.0000           ZONE CHANGE =       4.7898E-02
       ZONE CHG TIP/TOE =    11896925.0000      ZONE CHG TIP/TOE =       4.4685E-03
            ZONE MIXING =           0.0000           ZONE MIXING =           0.0000

               TOTAL IN =  1005419264.0000              TOTAL IN =           0.2400

             OUT:                                     OUT:
             ----                                     ----
             BOUNDARIES =   901514944.0000            BOUNDARIES =           0.2363
          CONSTANT HEAD =           0.0000         CONSTANT HEAD =           0.0000
            ZONE CHANGE =    32791772.0000           ZONE CHANGE =       1.0681E-02
       ZONE CHG TIP/TOE =     9390744.0000      ZONE CHG TIP/TOE =       2.9295E-03
            ZONE MIXING =     1099185.5000           ZONE MIXING =           0.0000

              TOTAL OUT =   944796672.0000             TOTAL OUT =           0.2499

               IN - OUT =    60622592.0000              IN - OUT =      -9.9493E-03

    PERCENT DISCREPANCY =           6.22     PERCENT DISCREPANCY =          -4.06



                      VOLUMETRIC SWI ZONE BUDGET FOR ENTIRE MODEL
                     AT END OF TIME STEP   85 IN STRESS PERIOD   2
                                      ZONE     2
  -----------------------------------------------------------------------------------

        CUMULATIVE VOLUMES      L**3       RATES FOR THIS TIME STEP      L**3/T
        ------------------                 ------------------------

              IN:                                      IN:
              ---                                      ---
             BOUNDARIES =   126627928.0000            BOUNDARIES =           0.1315
          CONSTANT HEAD =           0.0000         CONSTANT HEAD =           0.0000
            ZONE CHANGE =    27849026.0000           ZONE CHANGE =       8.2389E-03
       ZONE CHG TIP/TOE =    23200502.0000      ZONE CHG TIP/TOE =       9.3975E-03
            ZONE MIXING =     1099185.5000           ZONE MIXING =           0.0000

               TOTAL IN =   178776640.0000              TOTAL IN =           0.1491

             OUT:                                     OUT:
             ----                                     ----
             BOUNDARIES =   110223600.0000            BOUNDARIES =           0.1162
          CONSTANT HEAD =           0.0000         CONSTANT HEAD =           0.0000
            ZONE CHANGE =    62348228.0000           ZONE CHANGE =       2.6975E-02
       ZONE CHG TIP/TOE =     7509753.5000      ZONE CHG TIP/TOE =       1.5322E-03
            ZONE MIXING =           0.0000           ZONE MIXING =           0.0000

              TOTAL OUT =   180081584.0000             TOTAL OUT =           0.1447

               IN - OUT =    -1304944.0000              IN - OUT =       4.3892E-03

    PERCENT DISCREPANCY =          -0.73     PERCENT DISCREPANCY =           2.99


 HEAD WILL BE SAVED ON UNIT   37 AT END OF TIME STEP   85, STRESS PERIOD    2

 DRAWDOWN WILL BE SAVED ON UNIT   38 AT END OF TIME STEP   85, STRESS PERIOD    2
1
  VOLUMETRIC BUDGET FOR ENTIRE MODEL AT END OF TIME STEP   85, STRESS PERIOD   2
  ------------------------------------------------------------------------------

     CUMULATIVE VOLUMES      L**3       RATES FOR THIS TIME STEP      L**3/T
     ------------------                 ------------------------

           IN:                                      IN:
           ---                                      ---
             STORAGE =    90101456.0000               STORAGE =       3.3631E-02
       CONSTANT HEAD =           0.0000         CONSTANT HEAD =           0.0000
               WELLS =           0.0000                 WELLS =           0.0000
       RIVER LEAKAGE =   164352000.0000         RIVER LEAKAGE =       3.6000E-02
                  ET =           0.0000                    ET =           0.0000
     HEAD DEP BOUNDS =   137384896.0000       HEAD DEP BOUNDS =           0.1348
            RECHARGE =   667120576.0000              RECHARGE =           0.1680
          SWIADDTOCH =           0.0000            SWIADDTOCH =           0.0000

            TOTAL IN =  1058958912.0000              TOTAL IN =           0.3725

          OUT:                                     OUT:
          ----                                     ----
             STORAGE =      115834.0469               STORAGE =       1.8617E-04
       CONSTANT HEAD =           0.0000         CONSTANT HEAD =           0.0000
               WELLS =   514099744.0000                 WELLS =           0.3720
       RIVER LEAKAGE =    21630804.0000         RIVER LEAKAGE =           0.0000
                  ET =   166413648.0000                    ET =           0.0000
     HEAD DEP BOUNDS =   356711232.0000       HEAD DEP BOUNDS =       2.8547E-04
            RECHARGE =           0.0000              RECHARGE =           0.0000
          SWIADDTOCH =           0.0000            SWIADDTOCH =           0.0000

           TOTAL OUT =  1058971264.0000             TOTAL OUT =           0.3725

            IN - OUT =      -12352.0000              IN - OUT =           0.0000

 PERCENT DISCREPANCY =          -0.00     PERCENT DISCREPANCY =           0.00






         TIME SUMMARY AT END OF TIME STEP   85 IN STRESS PERIOD    2
                    SECONDS     MINUTES      HOURS       DAYS        YEARS
                    -----------------------------------------------------------
   TIME STEP LENGTH 1.57680E+07 2.62800E+05  4380.0      182.50     0.49966    
 STRESS PERIOD TIME 1.34028E+09 2.23380E+07 3.72300E+05  15513.      42.471    
         TOTAL TIME 4.49389E+09 7.48981E+07 1.24830E+06  52013.      142.40    
1
 
 SOLVING FOR HEAD 

 CELL CONVERSIONS FOR ITER.=  2  LAYER=  1  STEP= 86  PERIOD=   2   (ROW,COL)
    DRY( 34, 34)   

 CELL CONVERSIONS FOR ITER.=  6  LAYER=  1  STEP= 86  PERIOD=   2   (ROW,COL)
    DRY( 41, 23)   
    17 CALLS TO PCG ROUTINE FOR TIME STEP  86 IN STRESS PERIOD    2
    41 TOTAL ITERATIONS

 MAXIMUM HEAD CHANGE FOR EACH ITERATION (1 INDICATES THE FIRST INNER ITERATION):

    HEAD CHANGE    HEAD CHANGE    HEAD CHANGE    HEAD CHANGE    HEAD CHANGE 
   LAYER,ROW,COL  LAYER,ROW,COL  LAYER,ROW,COL  LAYER,ROW,COL  LAYER,ROW,COL
 ---------------------------------------------------------------------------
  1 -0.3221      0 -0.8549E-01  0  0.1558E-01  0  0.4536E-02  0 -0.1534E-02
   (  1, 17, 11)  (  2, 16, 12)  (  2, 16, 13)  (  2,  6, 11)  (  2,  6, 11)
  0  0.4989E-03  1 -0.5825E-01  0  0.1357E-01  0  0.2296E-02  0  0.4326E-03
   (  1, 13, 10)  (  2, 34, 34)  (  2, 34, 34)  (  2, 34, 34)  (  1, 32, 35)
  1 -0.3107E-01  0 -0.4483E-03  1  0.2454E-01  0  0.3887E-03  1 -0.1959E-01
   (  2, 51, 37)  (  2, 50, 37)  (  2, 51, 37)  (  2, 50, 37)  (  2, 51, 37)
  0 -0.3065E-03  1 -0.3968E-01  0 -0.4842E-02  0 -0.1299E-02  0 -0.2718E-03
   (  2, 50, 37)  (  2, 41, 23)  (  2, 42, 20)  (  2, 42, 22)  (  2, 42, 22)
  1 -0.1145E-01  0 -0.3581E-03  1  0.8834E-02  0  0.1904E-03  1 -0.6748E-02
   (  2, 51, 37)  (  2, 51, 37)  (  2, 51, 37)  (  2, 51, 37)  (  2, 51, 37)
  0 -0.1584E-03  1  0.5137E-02  0  0.1208E-03  1 -0.3914E-02  0 -0.9546E-04
   (  2, 51, 37)  (  2, 51, 37)  (  2, 51, 37)  (  2, 51, 37)  (  2, 51, 37)
  1  0.2979E-02  0  0.7174E-04  1 -0.2269E-02  0 -0.5533E-04  1  0.1728E-02
   (  2, 51, 37)  (  2, 51, 37)  (  2, 51, 37)  (  2, 51, 37)  (  2, 51, 37)
  0  0.4182E-04  1 -0.1316E-02  0 -0.3196E-04  1  0.1002E-02  0  0.2428E-04
   (  2, 51, 37)  (  2, 51, 37)  (  2, 51, 37)  (  2, 51, 37)  (  2, 51, 37)
  1 -0.7630E-03
   (  2, 51, 37)

 MAXIMUM RESIDUAL FOR EACH ITERATION (1 INDICATES THE FIRST INNER ITERATION):

    RESIDUAL       RESIDUAL       RESIDUAL       RESIDUAL       RESIDUAL    
   LAYER,ROW,COL  LAYER,ROW,COL  LAYER,ROW,COL  LAYER,ROW,COL  LAYER,ROW,COL
 ---------------------------------------------------------------------------
  1  0.5763E-03  0 -0.1226E-03  0 -0.3923E-04  0 -0.1215E-04  0  0.4831E-05
   (  2, 22,  9)  (  2, 17, 11)  (  1, 13, 10)  (  1, 13, 10)  (  2, 19, 10)
  0  0.1513E-05  1  0.4728E-03  0  0.4935E-04  0  0.9261E-05  0  0.2118E-05
   (  2, 19, 10)  (  1, 41, 23)  (  1, 41, 23)  (  1, 41, 23)  (  1, 41, 23)
  1  0.7863E-05  0  0.2919E-05  1  0.8353E-04  0  0.2994E-04  1 -0.5887E-04
   (  1, 41, 23)  (  1, 41, 23)  (  1, 41, 23)  (  1, 41, 23)  (  2, 41, 23)
  0 -0.2337E-04  1  0.2868E-04  0  0.9552E-05  0  0.2221E-05  0  0.5456E-06
   (  2, 41, 23)  (  2, 41, 23)  (  2, 42, 22)  (  2, 42, 22)  (  2, 43, 21)
  1 -0.2805E-06  0  0.1686E-06  1 -0.2885E-06  0 -0.1386E-06  1  0.2173E-06
   (  2,  5, 11)  (  2, 50, 37)  (  2, 50, 37)  (  2, 50, 37)  (  2, 50, 37)
  0  0.1220E-06  1 -0.1755E-06  0 -0.9024E-07  1  0.1303E-06  0  0.7225E-07
   (  2, 50, 37)  (  2, 50, 37)  (  2, 50, 37)  (  2, 50, 37)  (  2, 50, 37)
  1 -0.1019E-06  0 -0.5379E-07  1  0.7642E-07  0  0.4183E-07  1 -0.5892E-07
   (  2, 50, 37)  (  2, 50, 37)  (  2, 50, 37)  (  2, 50, 37)  (  2, 50, 37)
  0 -0.3151E-07  1  0.4455E-07  0  0.2418E-07  1 -0.3411E-07  0 -0.1835E-07
   (  2, 50, 37)  (  2, 50, 37)  (  2, 50, 37)  (  2, 50, 37)  (  2, 50, 37)
  1  0.2590E-07
   (  2, 50, 37)



 OUTPUT CONTROL FOR STRESS PERIOD    2   TIME STEP   86
    SAVE HEAD FOR ALL LAYERS
    SAVE DRAWDOWN FOR ALL LAYERS
    SAVE BUDGET
    PRINT BUDGET
 UBDSV1 SAVING "         STORAGE" ON UNIT   9 AT TIME STEP 86, STRESS PERIOD   2
 UBDSV2 SAVING "   CONSTANT HEAD" ON UNIT   9 AT TIME STEP 86, STRESS PERIOD   2
 UBDSV1 SAVING "FLOW RIGHT FACE " ON UNIT   9 AT TIME STEP 86, STRESS PERIOD   2
 UBDSV1 SAVING "FLOW FRONT FACE " ON UNIT   9 AT TIME STEP 86, STRESS PERIOD   2
 UBDSV1 SAVING "FLOW LOWER FACE " ON UNIT   9 AT TIME STEP 86, STRESS PERIOD   2
 UBDSV4 SAVING "           WELLS" ON UNIT   9 AT TIME STEP 86, STRESS PERIOD   2
 UBDSV4 SAVING "   RIVER LEAKAGE" ON UNIT   9 AT TIME STEP 86, STRESS PERIOD   2
 UBDSV3 SAVING "              ET" ON UNIT   9 AT TIME STEP 86, STRESS PERIOD   2
 UBDSV4 SAVING " HEAD DEP BOUNDS" ON UNIT   9 AT TIME STEP 86, STRESS PERIOD   2
 UBDSV3 SAVING "        RECHARGE" ON UNIT   9 AT TIME STEP 86, STRESS PERIOD   2
 SOLVING FOR ZETA FOR LAYER     1 ZONE     2
     2 CALLS TO PCG ROUTINE FOR TIME STEP  86 IN STRESS PERIOD    2
     4 TOTAL ITERATIONS

 MAXIMUM HEAD CHANGE FOR EACH ITERATION (1 INDICATES THE FIRST INNER ITERATION):

    HEAD CHANGE    HEAD CHANGE    HEAD CHANGE    HEAD CHANGE    HEAD CHANGE 
   LAYER,ROW,COL  LAYER,ROW,COL  LAYER,ROW,COL  LAYER,ROW,COL  LAYER,ROW,COL
 ---------------------------------------------------------------------------
  1   34.79      0  0.9012E-01  0  0.1859E-03  1 -0.2074E-05
   (  1, 18, 10)  (  1, 16, 11)  (  1, 17, 10)  (  1, 25,  4)

 MAXIMUM RESIDUAL FOR EACH ITERATION (1 INDICATES THE FIRST INNER ITERATION):

    RESIDUAL       RESIDUAL       RESIDUAL       RESIDUAL       RESIDUAL    
   LAYER,ROW,COL  LAYER,ROW,COL  LAYER,ROW,COL  LAYER,ROW,COL  LAYER,ROW,COL
 ---------------------------------------------------------------------------
  1 -0.2450E-04  0 -0.5954E-07  0  0.7125E-09  1  0.8472E-11
   (  1, 16, 11)  (  1, 17, 10)  (  1, 25,  4)  (  1, 24,  5)


 SOLVING FOR ZETA FOR LAYER     2 ZONE     2
     2 CALLS TO PCG ROUTINE FOR TIME STEP  86 IN STRESS PERIOD    2
     4 TOTAL ITERATIONS

 MAXIMUM HEAD CHANGE FOR EACH ITERATION (1 INDICATES THE FIRST INNER ITERATION):

    HEAD CHANGE    HEAD CHANGE    HEAD CHANGE    HEAD CHANGE    HEAD CHANGE 
   LAYER,ROW,COL  LAYER,ROW,COL  LAYER,ROW,COL  LAYER,ROW,COL  LAYER,ROW,COL
 ---------------------------------------------------------------------------
  1  -6.203      0  0.4675E-01  0  0.4569E-03  1  0.9267E-05
   (  1, 17, 12)  (  1, 10, 10)  (  1,  6, 10)  (  1, 28,  6)

 MAXIMUM RESIDUAL FOR EACH ITERATION (1 INDICATES THE FIRST INNER ITERATION):

    RESIDUAL       RESIDUAL       RESIDUAL       RESIDUAL       RESIDUAL    
   LAYER,ROW,COL  LAYER,ROW,COL  LAYER,ROW,COL  LAYER,ROW,COL  LAYER,ROW,COL
 ---------------------------------------------------------------------------
  1 -0.1598E-04  0 -0.1620E-06  0 -0.3058E-08  1 -0.7396E-10
   (  1, 10, 10)  (  1, 29,  5)  (  1, 28,  6)  (  1, 29,  5)


 UBUDSV SAVING "      ZETASRF  1" ON UNIT170 AT TIME STEP 86, STRESS PERIOD    2


                      VOLUMETRIC SWI ZONE BUDGET FOR ENTIRE MODEL
                     AT END OF TIME STEP   86 IN STRESS PERIOD   2
                                      ZONE     1
  -----------------------------------------------------------------------------------

        CUMULATIVE VOLUMES      L**3       RATES FOR THIS TIME STEP      L**3/T
        ------------------                 ------------------------

              IN:                                      IN:
              ---                                      ---
             BOUNDARIES =   792602176.0000            BOUNDARIES =           0.1868
          CONSTANT HEAD =           0.0000         CONSTANT HEAD =           0.0000
            ZONE CHANGE =   204600336.0000           ZONE CHANGE =       4.6560E-02
       ZONE CHG TIP/TOE =    12100681.0000      ZONE CHG TIP/TOE =       1.2922E-02
            ZONE MIXING =           0.0000           ZONE MIXING =           0.0000

               TOTAL IN =  1009303168.0000              TOTAL IN =           0.2463

             OUT:                                     OUT:
             ----                                     ----
             BOUNDARIES =   905164416.0000            BOUNDARIES =           0.2314
          CONSTANT HEAD =           0.0000         CONSTANT HEAD =           0.0000
            ZONE CHANGE =    33002270.0000           ZONE CHANGE =       1.3350E-02
       ZONE CHG TIP/TOE =     9628883.0000      ZONE CHG TIP/TOE =       1.5103E-02
            ZONE MIXING =     1099185.5000           ZONE MIXING =           0.0000

              TOTAL OUT =   948894720.0000             TOTAL OUT =           0.2599

               IN - OUT =    60408448.0000              IN - OUT =      -1.3582E-02

    PERCENT DISCREPANCY =           6.17     PERCENT DISCREPANCY =          -5.37



                      VOLUMETRIC SWI ZONE BUDGET FOR ENTIRE MODEL
                     AT END OF TIME STEP   86 IN STRESS PERIOD   2
                                      ZONE     2
  -----------------------------------------------------------------------------------

        CUMULATIVE VOLUMES      L**3       RATES FOR THIS TIME STEP      L**3/T
        ------------------                 ------------------------

              IN:                                      IN:
              ---                                      ---
             BOUNDARIES =   128714080.0000            BOUNDARIES =           0.1323
          CONSTANT HEAD =           0.0000         CONSTANT HEAD =           0.0000
            ZONE CHANGE =    27961086.0000           ZONE CHANGE =       7.1067E-03
       ZONE CHG TIP/TOE =    23744794.0000      ZONE CHG TIP/TOE =       3.4519E-02
            ZONE MIXING =     1099185.5000           ZONE MIXING =           0.0000

               TOTAL IN =   181519136.0000              TOTAL IN =           0.1739

             OUT:                                     OUT:
             ----                                     ----
             BOUNDARIES =   112131600.0000            BOUNDARIES =           0.1210
          CONSTANT HEAD =           0.0000         CONSTANT HEAD =           0.0000
            ZONE CHANGE =    62956424.0000           ZONE CHANGE =       3.8572E-02
       ZONE CHG TIP/TOE =     7609218.0000      ZONE CHG TIP/TOE =       6.3080E-03
            ZONE MIXING =           0.0000           ZONE MIXING =           0.0000

              TOTAL OUT =   182697248.0000             TOTAL OUT =           0.1659

               IN - OUT =    -1178112.0000              IN - OUT =       8.0440E-03

    PERCENT DISCREPANCY =          -0.65     PERCENT DISCREPANCY =           4.73


 HEAD WILL BE SAVED ON UNIT   37 AT END OF TIME STEP   86, STRESS PERIOD    2

 DRAWDOWN WILL BE SAVED ON UNIT   38 AT END OF TIME STEP   86, STRESS PERIOD    2
1
  VOLUMETRIC BUDGET FOR ENTIRE MODEL AT END OF TIME STEP   86, STRESS PERIOD   2
  ------------------------------------------------------------------------------

     CUMULATIVE VOLUMES      L**3       RATES FOR THIS TIME STEP      L**3/T
     ------------------                 ------------------------

           IN:                                      IN:
           ---                                      ---
             STORAGE =    90629184.0000               STORAGE =       3.3468E-02
       CONSTANT HEAD =           0.0000         CONSTANT HEAD =           0.0000
               WELLS =           0.0000                 WELLS =           0.0000
       RIVER LEAKAGE =   164919648.0000         RIVER LEAKAGE =       3.6000E-02
                  ET =           0.0000                    ET =           0.0000
     HEAD DEP BOUNDS =   139518432.0000       HEAD DEP BOUNDS =           0.1353
            RECHARGE =   669763584.0000              RECHARGE =           0.1676
          SWIADDTOCH =           0.0000            SWIADDTOCH =           0.0000

            TOTAL IN =  1064830848.0000              TOTAL IN =           0.3724

          OUT:                                     OUT:
          ----                                     ----
             STORAGE =      118267.3984               STORAGE =       1.5432E-04
       CONSTANT HEAD =           0.0000         CONSTANT HEAD =           0.0000
               WELLS =   519965440.0000                 WELLS =           0.3720
       RIVER LEAKAGE =    21630804.0000         RIVER LEAKAGE =           0.0000
                  ET =   166413648.0000                    ET =           0.0000
     HEAD DEP BOUNDS =   356715008.0000       HEAD DEP BOUNDS =       2.4023E-04
            RECHARGE =           0.0000              RECHARGE =           0.0000
          SWIADDTOCH =           0.0000            SWIADDTOCH =           0.0000

           TOTAL OUT =  1064843136.0000             TOTAL OUT =           0.3724

            IN - OUT =      -12288.0000              IN - OUT =           0.0000

 PERCENT DISCREPANCY =          -0.00     PERCENT DISCREPANCY =           0.00






         TIME SUMMARY AT END OF TIME STEP   86 IN STRESS PERIOD    2
                    SECONDS     MINUTES      HOURS       DAYS        YEARS
                    -----------------------------------------------------------
   TIME STEP LENGTH 1.57680E+07 2.62800E+05  4380.0      182.50     0.49966    
 STRESS PERIOD TIME 1.35605E+09 2.26008E+07 3.76680E+05  15695.      42.971    
         TOTAL TIME 4.50965E+09 7.51609E+07 1.25268E+06  52195.      142.90    
1
 
 SOLVING FOR HEAD 

 CELL CONVERSIONS FOR ITER.=  2  LAYER=  1  STEP= 87  PERIOD=   2   (ROW,COL)
    DRY( 33, 35)   DRY( 39, 30)   DRY( 41, 29)   
    44 CALLS TO PCG ROUTINE FOR TIME STEP  87 IN STRESS PERIOD    2
    95 TOTAL ITERATIONS

 MAXIMUM HEAD CHANGE FOR EACH ITERATION (1 INDICATES THE FIRST INNER ITERATION):

    HEAD CHANGE    HEAD CHANGE    HEAD CHANGE    HEAD CHANGE    HEAD CHANGE 
   LAYER,ROW,COL  LAYER,ROW,COL  LAYER,ROW,COL  LAYER,ROW,COL  LAYER,ROW,COL
 ---------------------------------------------------------------------------
  1  0.2582      0 -0.8262E-01  0  0.2923E-01  0 -0.6633E-02  0  0.1747E-02
   (  1, 17, 11)  (  2,  5, 11)  (  2,  5, 11)  (  2,  6, 12)  (  2, 14, 11)
  0 -0.5708E-03  1  0.3824      0  0.5494E-01  0  0.1178E-01  0  0.2489E-02
   (  1, 12,  9)  (  2, 33, 35)  (  2, 31, 36)  (  2, 29, 37)  (  2, 32, 36)
  0  0.4099E-03  1 -0.2675E-01  0 -0.1192E-02  0 -0.3499E-03  1  0.2604E-01
   (  2, 35, 33)  (  2, 51, 37)  (  2, 51, 37)  (  2, 51, 37)  (  2, 51, 37)
  0  0.4385E-03  1 -0.2436E-01  0 -0.3483E-03  1  0.2244E-01  0  0.4027E-03
   (  2, 50, 37)  (  2, 51, 37)  (  2, 51, 37)  (  2, 51, 37)  (  2, 51, 37)
  1 -0.2073E-01  0 -0.3819E-03  1  0.1907E-01  0  0.3719E-03  1 -0.1760E-01
   (  2, 51, 37)  (  2, 51, 37)  (  2, 51, 37)  (  2, 51, 37)  (  2, 51, 37)
  0 -0.3350E-03  1  0.1619E-01  0  0.3172E-03  1 -0.1494E-01  0 -0.2858E-03
   (  2, 51, 37)  (  2, 51, 37)  (  2, 51, 37)  (  2, 51, 37)  (  2, 51, 37)
  1  0.1374E-01  0  0.2687E-03  1 -0.1268E-01  0 -0.2431E-03  1  0.1166E-01
   (  2, 51, 37)  (  2, 51, 37)  (  2, 51, 37)  (  2, 51, 37)  (  2, 51, 37)
  0  0.2277E-03  1 -0.1076E-01  0 -0.2066E-03  1  0.9897E-02  0  0.1930E-03
   (  2, 51, 37)  (  2, 51, 37)  (  2, 51, 37)  (  2, 51, 37)  (  2, 51, 37)
  1 -0.9123E-02  0 -0.1755E-03  1  0.8396E-02  0  0.1635E-03  1 -0.7739E-02
   (  2, 51, 37)  (  2, 51, 37)  (  2, 51, 37)  (  2, 51, 37)  (  2, 51, 37)
  0 -0.1490E-03  1  0.7123E-02  0  0.1386E-03  1 -0.6565E-02  0 -0.1265E-03
   (  2, 51, 37)  (  2, 51, 37)  (  2, 51, 37)  (  2, 51, 37)  (  2, 51, 37)
  1  0.6043E-02  0  0.1175E-03  1 -0.5568E-02  0 -0.1074E-03  1  0.5126E-02
   (  2, 51, 37)  (  2, 51, 37)  (  2, 51, 37)  (  2, 51, 37)  (  2, 51, 37)
  0  0.9962E-04  1 -0.4723E-02  0 -0.9115E-04  1  0.4348E-02  0  0.8448E-04
   (  2, 51, 37)  (  2, 51, 37)  (  2, 51, 37)  (  2, 51, 37)  (  2, 51, 37)
  1 -0.4006E-02  0 -0.7735E-04  1  0.3689E-02  0  0.7162E-04  1 -0.3399E-02
   (  2, 51, 37)  (  2, 51, 37)  (  2, 51, 37)  (  2, 51, 37)  (  2, 51, 37)
  0 -0.6566E-04  1  0.3130E-02  0  0.6074E-04  1 -0.2883E-02  0 -0.5571E-04
   (  2, 51, 37)  (  2, 51, 37)  (  2, 51, 37)  (  2, 51, 37)  (  2, 51, 37)
  1  0.2654E-02  0  0.5149E-04  1 -0.2445E-02  0 -0.4726E-04  1  0.2252E-02
   (  2, 51, 37)  (  2, 51, 37)  (  2, 51, 37)  (  2, 51, 37)  (  2, 51, 37)
  0  0.4367E-04  1 -0.2074E-02  0 -0.4011E-04  1  0.1910E-02  0  0.3704E-04
   (  2, 51, 37)  (  2, 51, 37)  (  2, 51, 37)  (  2, 51, 37)  (  2, 51, 37)
  1 -0.1760E-02  0 -0.3403E-04  1  0.1621E-02  0  0.3141E-04  1 -0.1493E-02
   (  2, 51, 37)  (  2, 51, 37)  (  2, 51, 37)  (  2, 51, 37)  (  2, 51, 37)
  0 -0.2888E-04  1  0.1374E-02  0  0.2663E-04  1 -0.1266E-02  0 -0.2450E-04
   (  2, 51, 37)  (  2, 51, 37)  (  2, 51, 37)  (  2, 51, 37)  (  2, 51, 37)
  1  0.1167E-02  0  0.2259E-04  1 -0.1075E-02  0 -0.2079E-04  1  0.9891E-03
   (  2, 51, 37)  (  2, 51, 37)  (  2, 51, 37)  (  2, 51, 37)  (  2, 51, 37)

 MAXIMUM RESIDUAL FOR EACH ITERATION (1 INDICATES THE FIRST INNER ITERATION):

    RESIDUAL       RESIDUAL       RESIDUAL       RESIDUAL       RESIDUAL    
   LAYER,ROW,COL  LAYER,ROW,COL  LAYER,ROW,COL  LAYER,ROW,COL  LAYER,ROW,COL
 ---------------------------------------------------------------------------
  1 -0.6707E-03  0 -0.2095E-03  0 -0.6316E-04  0  0.1652E-04  0 -0.5992E-05
   (  2, 13,  9)  (  2, 13,  9)  (  2, 20,  9)  (  2, 11, 10)  (  2, 19, 10)
  0 -0.2231E-05  1 -0.2330E-03  0 -0.7356E-04  0 -0.1960E-04  0 -0.3657E-05
   (  2, 12,  9)  (  2, 32, 36)  (  2, 32, 36)  (  2, 32, 36)  (  2, 32, 36)
  0  0.1322E-05  1  0.2314E-05  0  0.8881E-06  0 -0.1560E-06  1 -0.7666E-06
   (  1, 32, 36)  (  2, 31, 33)  (  2, 31, 33)  (  2, 31, 34)  (  2, 50, 37)
  0 -0.1504E-06  1  0.6557E-06  0  0.2897E-06  1 -0.6659E-06  0 -0.3280E-06
   (  2, 50, 37)  (  2, 50, 37)  (  2, 50, 37)  (  2, 50, 37)  (  2, 50, 37)
  1  0.6096E-06  0  0.3069E-06  1 -0.5801E-06  0 -0.2919E-06  1  0.5212E-06
   (  2, 50, 37)  (  2, 50, 37)  (  2, 50, 37)  (  2, 50, 37)  (  2, 50, 37)
  0  0.2674E-06  1 -0.4934E-06  0 -0.2485E-06  1  0.4433E-06  0  0.2287E-06
   (  2, 50, 37)  (  2, 50, 37)  (  2, 50, 37)  (  2, 50, 37)  (  2, 50, 37)
  1 -0.4186E-06  0 -0.2109E-06  1  0.3769E-06  0  0.1948E-06  1 -0.3549E-06
   (  2, 50, 37)  (  2, 50, 37)  (  2, 50, 37)  (  2, 50, 37)  (  2, 50, 37)
  0 -0.1791E-06  1  0.3204E-06  0  0.1656E-06  1 -0.3008E-06  0 -0.1521E-06
   (  2, 50, 37)  (  2, 50, 37)  (  2, 50, 37)  (  2, 50, 37)  (  2, 50, 37)
  1  0.2723E-06  0  0.1406E-06  1 -0.2549E-06  0 -0.1291E-06  1  0.2313E-06
   (  2, 50, 37)  (  2, 50, 37)  (  2, 50, 37)  (  2, 50, 37)  (  2, 50, 37)
  0  0.1193E-06  1 -0.2160E-06  0 -0.1096E-06  1  0.1964E-06  0  0.1012E-06
   (  2, 50, 37)  (  2, 50, 37)  (  2, 50, 37)  (  2, 50, 37)  (  2, 50, 37)
  1 -0.1831E-06  0 -0.9298E-07  1  0.1668E-06  0  0.8582E-07  1 -0.1551E-06
   (  2, 50, 37)  (  2, 50, 37)  (  2, 50, 37)  (  2, 50, 37)  (  2, 50, 37)
  0 -0.7890E-07  1  0.1416E-06  0  0.7279E-07  1 -0.1315E-06  0 -0.6697E-07
   (  2, 50, 37)  (  2, 50, 37)  (  2, 50, 37)  (  2, 50, 37)  (  2, 50, 37)
  1  0.1202E-06  0  0.6173E-07  1 -0.1115E-06  0 -0.5681E-07  1  0.1020E-06
   (  2, 50, 37)  (  2, 50, 37)  (  2, 50, 37)  (  2, 50, 37)  (  2, 50, 37)
  0  0.5238E-07  1 -0.9454E-07  0 -0.4820E-07  1  0.8658E-07  0  0.4442E-07
   (  2, 50, 37)  (  2, 50, 37)  (  2, 50, 37)  (  2, 50, 37)  (  2, 50, 37)
  1 -0.8014E-07  0 -0.4088E-07  1  0.7346E-07  0  0.3767E-07  1 -0.6797E-07
   (  2, 50, 37)  (  2, 50, 37)  (  2, 50, 37)  (  2, 50, 37)  (  2, 50, 37)
  0 -0.3468E-07  1  0.6235E-07  0  0.3196E-07  1 -0.5763E-07  0 -0.2942E-07
   (  2, 50, 37)  (  2, 50, 37)  (  2, 50, 37)  (  2, 50, 37)  (  2, 50, 37)
  1  0.5292E-07  0  0.2711E-07  1 -0.4889E-07  0 -0.2495E-07  1  0.4489E-07
   (  2, 50, 37)  (  2, 50, 37)  (  2, 50, 37)  (  2, 50, 37)  (  2, 50, 37)
  0  0.2300E-07  1 -0.4146E-07  0 -0.2116E-07  1  0.3808E-07  0  0.1952E-07
   (  2, 50, 37)  (  2, 50, 37)  (  2, 50, 37)  (  2, 50, 37)  (  2, 50, 37)
  1 -0.3518E-07  0 -0.1796E-07  1  0.3231E-07  0  0.1656E-07  1 -0.2981E-07
   (  2, 50, 37)  (  2, 50, 37)  (  2, 50, 37)  (  2, 50, 37)  (  2, 50, 37)



 OUTPUT CONTROL FOR STRESS PERIOD    2   TIME STEP   87
    SAVE HEAD FOR ALL LAYERS
    SAVE DRAWDOWN FOR ALL LAYERS
    SAVE BUDGET
    PRINT BUDGET
 UBDSV1 SAVING "         STORAGE" ON UNIT   9 AT TIME STEP 87, STRESS PERIOD   2
 UBDSV2 SAVING "   CONSTANT HEAD" ON UNIT   9 AT TIME STEP 87, STRESS PERIOD   2
 UBDSV1 SAVING "FLOW RIGHT FACE " ON UNIT   9 AT TIME STEP 87, STRESS PERIOD   2
 UBDSV1 SAVING "FLOW FRONT FACE " ON UNIT   9 AT TIME STEP 87, STRESS PERIOD   2
 UBDSV1 SAVING "FLOW LOWER FACE " ON UNIT   9 AT TIME STEP 87, STRESS PERIOD   2
 UBDSV4 SAVING "           WELLS" ON UNIT   9 AT TIME STEP 87, STRESS PERIOD   2
 UBDSV4 SAVING "   RIVER LEAKAGE" ON UNIT   9 AT TIME STEP 87, STRESS PERIOD   2
 UBDSV3 SAVING "              ET" ON UNIT   9 AT TIME STEP 87, STRESS PERIOD   2
 UBDSV4 SAVING " HEAD DEP BOUNDS" ON UNIT   9 AT TIME STEP 87, STRESS PERIOD   2
 UBDSV3 SAVING "        RECHARGE" ON UNIT   9 AT TIME STEP 87, STRESS PERIOD   2
 SOLVING FOR ZETA FOR LAYER     1 ZONE     2
     2 CALLS TO PCG ROUTINE FOR TIME STEP  87 IN STRESS PERIOD    2
     4 TOTAL ITERATIONS

 MAXIMUM HEAD CHANGE FOR EACH ITERATION (1 INDICATES THE FIRST INNER ITERATION):

    HEAD CHANGE    HEAD CHANGE    HEAD CHANGE    HEAD CHANGE    HEAD CHANGE 
   LAYER,ROW,COL  LAYER,ROW,COL  LAYER,ROW,COL  LAYER,ROW,COL  LAYER,ROW,COL
 ---------------------------------------------------------------------------
  1   9.714      0  0.1126      0  0.9497E-03  1  0.2095E-05
   (  1, 21,  7)  (  1, 22,  6)  (  1, 21,  7)  (  1, 22, 10)

 MAXIMUM RESIDUAL FOR EACH ITERATION (1 INDICATES THE FIRST INNER ITERATION):

    RESIDUAL       RESIDUAL       RESIDUAL       RESIDUAL       RESIDUAL    
   LAYER,ROW,COL  LAYER,ROW,COL  LAYER,ROW,COL  LAYER,ROW,COL  LAYER,ROW,COL
 ---------------------------------------------------------------------------
  1 -0.3631E-04  0 -0.3128E-06  0 -0.6061E-09  1 -0.5371E-11
   (  1, 22,  6)  (  1, 21,  7)  (  1, 22, 10)  (  1, 21,  7)


 SOLVING FOR ZETA FOR LAYER     2 ZONE     2
     2 CALLS TO PCG ROUTINE FOR TIME STEP  87 IN STRESS PERIOD    2
     4 TOTAL ITERATIONS

 MAXIMUM HEAD CHANGE FOR EACH ITERATION (1 INDICATES THE FIRST INNER ITERATION):

    HEAD CHANGE    HEAD CHANGE    HEAD CHANGE    HEAD CHANGE    HEAD CHANGE 
   LAYER,ROW,COL  LAYER,ROW,COL  LAYER,ROW,COL  LAYER,ROW,COL  LAYER,ROW,COL
 ---------------------------------------------------------------------------
  1   5.898      0  0.4498E-01  0  0.4156E-03  1  0.9971E-05
   (  1, 17, 11)  (  1, 10, 10)  (  1, 29,  5)  (  1, 28,  6)

 MAXIMUM RESIDUAL FOR EACH ITERATION (1 INDICATES THE FIRST INNER ITERATION):

    RESIDUAL       RESIDUAL       RESIDUAL       RESIDUAL       RESIDUAL    
   LAYER,ROW,COL  LAYER,ROW,COL  LAYER,ROW,COL  LAYER,ROW,COL  LAYER,ROW,COL
 ---------------------------------------------------------------------------
  1 -0.1525E-04  0 -0.1546E-06  0 -0.3311E-08  1 -0.7630E-10
   (  1, 10, 10)  (  1, 29,  5)  (  1, 28,  6)  (  1, 29,  5)


 UBUDSV SAVING "      ZETASRF  1" ON UNIT170 AT TIME STEP 87, STRESS PERIOD    2


                      VOLUMETRIC SWI ZONE BUDGET FOR ENTIRE MODEL
                     AT END OF TIME STEP   87 IN STRESS PERIOD   2
                                      ZONE     1
  -----------------------------------------------------------------------------------

        CUMULATIVE VOLUMES      L**3       RATES FOR THIS TIME STEP      L**3/T
        ------------------                 ------------------------

              IN:                                      IN:
              ---                                      ---
             BOUNDARIES =   795544064.0000            BOUNDARIES =           0.1866
          CONSTANT HEAD =           0.0000         CONSTANT HEAD =           0.0000
            ZONE CHANGE =   205400480.0000           ZONE CHANGE =       5.0745E-02
       ZONE CHG TIP/TOE =    12251525.0000      ZONE CHG TIP/TOE =       9.5665E-03
            ZONE MIXING =           0.0000           ZONE MIXING =           0.0000

               TOTAL IN =  1013196032.0000              TOTAL IN =           0.2469

             OUT:                                     OUT:
             ----                                     ----
             BOUNDARIES =   908860544.0000            BOUNDARIES =           0.2344
          CONSTANT HEAD =           0.0000         CONSTANT HEAD =           0.0000
            ZONE CHANGE =    33108984.0000           ZONE CHANGE =       6.7678E-03
       ZONE CHG TIP/TOE =     9706179.0000      ZONE CHG TIP/TOE =       4.9021E-03
            ZONE MIXING =     1150616.5000           ZONE MIXING =       3.2617E-03

              TOTAL OUT =   952826304.0000             TOTAL OUT =           0.2493

               IN - OUT =    60369728.0000              IN - OUT =      -2.4524E-03

    PERCENT DISCREPANCY =           6.14     PERCENT DISCREPANCY =          -0.99



                      VOLUMETRIC SWI ZONE BUDGET FOR ENTIRE MODEL
                     AT END OF TIME STEP   87 IN STRESS PERIOD   2
                                      ZONE     2
  -----------------------------------------------------------------------------------

        CUMULATIVE VOLUMES      L**3       RATES FOR THIS TIME STEP      L**3/T
        ------------------                 ------------------------

              IN:                                      IN:
              ---                                      ---
             BOUNDARIES =   130807808.0000            BOUNDARIES =           0.1328
          CONSTANT HEAD =           0.0000         CONSTANT HEAD =           0.0000
            ZONE CHANGE =    28040364.0000           ZONE CHANGE =       5.0278E-03
       ZONE CHG TIP/TOE =    23941926.0000      ZONE CHG TIP/TOE =       1.2502E-02
            ZONE MIXING =     1150616.5000           ZONE MIXING =       3.2617E-03

               TOTAL IN =   183940704.0000              TOTAL IN =           0.1536

             OUT:                                     OUT:
             ----                                     ----
             BOUNDARIES =   113963760.0000            BOUNDARIES =           0.1162
          CONSTANT HEAD =           0.0000         CONSTANT HEAD =           0.0000
            ZONE CHANGE =    63468676.0000           ZONE CHANGE =       3.2487E-02
       ZONE CHG TIP/TOE =     7729608.0000      ZONE CHG TIP/TOE =       7.6351E-03
            ZONE MIXING =           0.0000           ZONE MIXING =           0.0000

              TOTAL OUT =   185162048.0000             TOTAL OUT =           0.1563

               IN - OUT =    -1221344.0000              IN - OUT =      -2.7417E-03

    PERCENT DISCREPANCY =          -0.66     PERCENT DISCREPANCY =          -1.77


 HEAD WILL BE SAVED ON UNIT   37 AT END OF TIME STEP   87, STRESS PERIOD    2

 DRAWDOWN WILL BE SAVED ON UNIT   38 AT END OF TIME STEP   87, STRESS PERIOD    2
1
  VOLUMETRIC BUDGET FOR ENTIRE MODEL AT END OF TIME STEP   87, STRESS PERIOD   2
  ------------------------------------------------------------------------------

     CUMULATIVE VOLUMES      L**3       RATES FOR THIS TIME STEP      L**3/T
     ------------------                 ------------------------

           IN:                                      IN:
           ---                                      ---
             STORAGE =    91130456.0000               STORAGE =       3.1791E-02
       CONSTANT HEAD =           0.0000         CONSTANT HEAD =           0.0000
               WELLS =           0.0000                 WELLS =           0.0000
       RIVER LEAKAGE =   165487296.0000         RIVER LEAKAGE =       3.6000E-02
                  ET =           0.0000                    ET =           0.0000
     HEAD DEP BOUNDS =   141661392.0000       HEAD DEP BOUNDS =           0.1359
            RECHARGE =   672397568.0000              RECHARGE =           0.1670
          SWIADDTOCH =           0.0000            SWIADDTOCH =           0.0000

            TOTAL IN =  1070676736.0000              TOTAL IN =           0.3707

          OUT:                                     OUT:
          ----                                     ----
             STORAGE =      126892.9375               STORAGE =       5.4703E-04
       CONSTANT HEAD =           0.0000         CONSTANT HEAD =           0.0000
               WELLS =   525799616.0000                 WELLS =           0.3700
       RIVER LEAKAGE =    21630804.0000         RIVER LEAKAGE =           0.0000
                  ET =   166413648.0000                    ET =           0.0000
     HEAD DEP BOUNDS =   356718112.0000       HEAD DEP BOUNDS =       1.9661E-04
            RECHARGE =           0.0000              RECHARGE =           0.0000
          SWIADDTOCH =           0.0000            SWIADDTOCH =           0.0000

           TOTAL OUT =  1070689024.0000             TOTAL OUT =           0.3707

            IN - OUT =      -12288.0000              IN - OUT =           0.0000

 PERCENT DISCREPANCY =          -0.00     PERCENT DISCREPANCY =           0.00






         TIME SUMMARY AT END OF TIME STEP   87 IN STRESS PERIOD    2
                    SECONDS     MINUTES      HOURS       DAYS        YEARS
                    -----------------------------------------------------------
   TIME STEP LENGTH 1.57680E+07 2.62800E+05  4380.0      182.50     0.49966    
 STRESS PERIOD TIME 1.37182E+09 2.28636E+07 3.81060E+05  15878.      43.470    
         TOTAL TIME 4.52542E+09 7.54237E+07 1.25706E+06  52378.      143.40    
1
 
 SOLVING FOR HEAD 

 CELL CONVERSIONS FOR ITER.=  2  LAYER=  2  STEP= 88  PERIOD=   2   (ROW,COL)
    DRY( 51, 37)   
     7 CALLS TO PCG ROUTINE FOR TIME STEP  88 IN STRESS PERIOD    2
    19 TOTAL ITERATIONS

 MAXIMUM HEAD CHANGE FOR EACH ITERATION (1 INDICATES THE FIRST INNER ITERATION):

    HEAD CHANGE    HEAD CHANGE    HEAD CHANGE    HEAD CHANGE    HEAD CHANGE 
   LAYER,ROW,COL  LAYER,ROW,COL  LAYER,ROW,COL  LAYER,ROW,COL  LAYER,ROW,COL
 ---------------------------------------------------------------------------
  1 -0.3055      0 -0.9630E-01  0 -0.2522E-01  0 -0.5894E-02  0 -0.1421E-02
   (  2, 18, 11)  (  2, 16, 12)  (  2, 19, 10)  (  1, 18, 11)  (  1, 20,  9)
  0 -0.4678E-03  1  0.1706E-01  0  0.6024E-02  0  0.1439E-02  0  0.3599E-03
   (  2,  5, 11)  (  2, 51, 38)  (  2, 51, 38)  (  2, 51, 38)  (  2, 51, 38)
  1 -0.9832E-02  0 -0.3202E-03  1  0.3791E-02  0  0.2177E-03  1 -0.1472E-02
   (  2, 51, 38)  (  2, 51, 38)  (  2, 51, 38)  (  2, 51, 38)  (  2, 51, 38)
  0 -0.9647E-04  1  0.1041E-02  0  0.8365E-04  1 -0.8320E-03
   (  2, 51, 38)  (  2, 12, 19)  (  2, 12, 19)  (  2, 12, 19)

 MAXIMUM RESIDUAL FOR EACH ITERATION (1 INDICATES THE FIRST INNER ITERATION):

    RESIDUAL       RESIDUAL       RESIDUAL       RESIDUAL       RESIDUAL    
   LAYER,ROW,COL  LAYER,ROW,COL  LAYER,ROW,COL  LAYER,ROW,COL  LAYER,ROW,COL
 ---------------------------------------------------------------------------
  1 -0.6109E-03  0 -0.2115E-03  0 -0.5149E-04  0  0.1605E-04  0  0.5240E-05
   (  2, 19, 11)  (  2, 17, 11)  (  1, 21,  7)  (  2, 21,  7)  (  2, 21,  7)
  0 -0.1621E-05  1 -0.6779E-05  0 -0.2011E-05  0 -0.7191E-06  0  0.1730E-06
   (  1, 17, 12)  (  2, 18, 11)  (  2, 20, 10)  (  2, 21,  9)  (  2, 21, 10)
  1 -0.3633E-06  0  0.1028E-06  1  0.2270E-06  0 -0.8068E-07  1  0.8399E-07
   (  2, 18, 11)  (  2, 50, 37)  (  2,  5, 11)  (  2, 50, 37)  (  2, 14, 19)
  0  0.3699E-07  1  0.6468E-07  0  0.3006E-07  1 -0.5181E-07
   (  2, 50, 37)  (  2, 13, 17)  (  2, 13, 17)  (  2, 13, 17)



 OUTPUT CONTROL FOR STRESS PERIOD    2   TIME STEP   88
    SAVE HEAD FOR ALL LAYERS
    SAVE DRAWDOWN FOR ALL LAYERS
    SAVE BUDGET
    PRINT BUDGET
 UBDSV1 SAVING "         STORAGE" ON UNIT   9 AT TIME STEP 88, STRESS PERIOD   2
 UBDSV2 SAVING "   CONSTANT HEAD" ON UNIT   9 AT TIME STEP 88, STRESS PERIOD   2
 UBDSV1 SAVING "FLOW RIGHT FACE " ON UNIT   9 AT TIME STEP 88, STRESS PERIOD   2
 UBDSV1 SAVING "FLOW FRONT FACE " ON UNIT   9 AT TIME STEP 88, STRESS PERIOD   2
 UBDSV1 SAVING "FLOW LOWER FACE " ON UNIT   9 AT TIME STEP 88, STRESS PERIOD   2
 UBDSV4 SAVING "           WELLS" ON UNIT   9 AT TIME STEP 88, STRESS PERIOD   2
 UBDSV4 SAVING "   RIVER LEAKAGE" ON UNIT   9 AT TIME STEP 88, STRESS PERIOD   2
 UBDSV3 SAVING "              ET" ON UNIT   9 AT TIME STEP 88, STRESS PERIOD   2
 UBDSV4 SAVING " HEAD DEP BOUNDS" ON UNIT   9 AT TIME STEP 88, STRESS PERIOD   2
 UBDSV3 SAVING "        RECHARGE" ON UNIT   9 AT TIME STEP 88, STRESS PERIOD   2
 SOLVING FOR ZETA FOR LAYER     1 ZONE     2
     2 CALLS TO PCG ROUTINE FOR TIME STEP  88 IN STRESS PERIOD    2
     4 TOTAL ITERATIONS

 MAXIMUM HEAD CHANGE FOR EACH ITERATION (1 INDICATES THE FIRST INNER ITERATION):

    HEAD CHANGE    HEAD CHANGE    HEAD CHANGE    HEAD CHANGE    HEAD CHANGE 
   LAYER,ROW,COL  LAYER,ROW,COL  LAYER,ROW,COL  LAYER,ROW,COL  LAYER,ROW,COL
 ---------------------------------------------------------------------------
  1   30.57      0  0.8506E-01  0  0.2375E-03  1 -0.2258E-05
   (  1, 20,  8)  (  1, 16, 11)  (  1, 12,  9)  (  1, 20,  8)

 MAXIMUM RESIDUAL FOR EACH ITERATION (1 INDICATES THE FIRST INNER ITERATION):

    RESIDUAL       RESIDUAL       RESIDUAL       RESIDUAL       RESIDUAL    
   LAYER,ROW,COL  LAYER,ROW,COL  LAYER,ROW,COL  LAYER,ROW,COL  LAYER,ROW,COL
 ---------------------------------------------------------------------------
  1 -0.2299E-04  0 -0.7141E-07  0  0.6549E-09  1  0.7803E-11
   (  1, 16, 11)  (  1, 12,  9)  (  1, 24,  4)  (  1, 23,  5)


 SOLVING FOR ZETA FOR LAYER     2 ZONE     2
     2 CALLS TO PCG ROUTINE FOR TIME STEP  88 IN STRESS PERIOD    2
     4 TOTAL ITERATIONS

 MAXIMUM HEAD CHANGE FOR EACH ITERATION (1 INDICATES THE FIRST INNER ITERATION):

    HEAD CHANGE    HEAD CHANGE    HEAD CHANGE    HEAD CHANGE    HEAD CHANGE 
   LAYER,ROW,COL  LAYER,ROW,COL  LAYER,ROW,COL  LAYER,ROW,COL  LAYER,ROW,COL
 ---------------------------------------------------------------------------
  1  -6.840      0  0.4228E-01  0  0.4234E-03  1  0.9269E-05
   (  1, 17, 12)  (  1, 10, 10)  (  1,  9, 11)  (  1, 28,  6)

 MAXIMUM RESIDUAL FOR EACH ITERATION (1 INDICATES THE FIRST INNER ITERATION):

    RESIDUAL       RESIDUAL       RESIDUAL       RESIDUAL       RESIDUAL    
   LAYER,ROW,COL  LAYER,ROW,COL  LAYER,ROW,COL  LAYER,ROW,COL  LAYER,ROW,COL
 ---------------------------------------------------------------------------
  1 -0.1421E-04  0 -0.1453E-06  0 -0.3086E-08  1 -0.7178E-10
   (  1, 10, 10)  (  1, 29,  5)  (  1, 28,  6)  (  1, 29,  5)


 UBUDSV SAVING "      ZETASRF  1" ON UNIT170 AT TIME STEP 88, STRESS PERIOD    2


                      VOLUMETRIC SWI ZONE BUDGET FOR ENTIRE MODEL
                     AT END OF TIME STEP   88 IN STRESS PERIOD   2
                                      ZONE     1
  -----------------------------------------------------------------------------------

        CUMULATIVE VOLUMES      L**3       RATES FOR THIS TIME STEP      L**3/T
        ------------------                 ------------------------

              IN:                                      IN:
              ---                                      ---
             BOUNDARIES =   798487744.0000            BOUNDARIES =           0.1867
          CONSTANT HEAD =           0.0000         CONSTANT HEAD =           0.0000
            ZONE CHANGE =   206181008.0000           ZONE CHANGE =       4.9500E-02
       ZONE CHG TIP/TOE =    12385692.0000      ZONE CHG TIP/TOE =       8.5088E-03
            ZONE MIXING =           0.0000           ZONE MIXING =           0.0000

               TOTAL IN =  1017054464.0000              TOTAL IN =           0.2447

             OUT:                                     OUT:
             ----                                     ----
             BOUNDARIES =   912755008.0000            BOUNDARIES =           0.2470
          CONSTANT HEAD =           0.0000         CONSTANT HEAD =           0.0000
            ZONE CHANGE =    33241156.0000           ZONE CHANGE =       8.3823E-03
       ZONE CHG TIP/TOE =     9810311.0000      ZONE CHG TIP/TOE =       6.6040E-03
            ZONE MIXING =     1150616.5000           ZONE MIXING =           0.0000

              TOTAL OUT =   956957120.0000             TOTAL OUT =           0.2620

               IN - OUT =    60097344.0000              IN - OUT =      -1.7274E-02

    PERCENT DISCREPANCY =           6.09     PERCENT DISCREPANCY =          -6.82



                      VOLUMETRIC SWI ZONE BUDGET FOR ENTIRE MODEL
                     AT END OF TIME STEP   88 IN STRESS PERIOD   2
                                      ZONE     2
  -----------------------------------------------------------------------------------

        CUMULATIVE VOLUMES      L**3       RATES FOR THIS TIME STEP      L**3/T
        ------------------                 ------------------------

              IN:                                      IN:
              ---                                      ---
             BOUNDARIES =   132907840.0000            BOUNDARIES =           0.1332
          CONSTANT HEAD =           0.0000         CONSTANT HEAD =           0.0000
            ZONE CHANGE =    28146536.0000           ZONE CHANGE =       6.7334E-03
       ZONE CHG TIP/TOE =    24377836.0000      ZONE CHG TIP/TOE =       2.7645E-02
            ZONE MIXING =     1150616.5000           ZONE MIXING =           0.0000

               TOTAL IN =   186582832.0000              TOTAL IN =           0.1676

             OUT:                                     OUT:
             ----                                     ----
             BOUNDARIES =   115596936.0000            BOUNDARIES =           0.1036
          CONSTANT HEAD =           0.0000         CONSTANT HEAD =           0.0000
            ZONE CHANGE =    64184020.0000           ZONE CHANGE =       4.5367E-02
       ZONE CHG TIP/TOE =     7831272.0000      ZONE CHG TIP/TOE =       6.4475E-03
            ZONE MIXING =           0.0000           ZONE MIXING =           0.0000

              TOTAL OUT =   187612224.0000             TOTAL OUT =           0.1554

               IN - OUT =    -1029392.0000              IN - OUT =       1.2172E-02

    PERCENT DISCREPANCY =          -0.55     PERCENT DISCREPANCY =           7.54


 HEAD WILL BE SAVED ON UNIT   37 AT END OF TIME STEP   88, STRESS PERIOD    2

 DRAWDOWN WILL BE SAVED ON UNIT   38 AT END OF TIME STEP   88, STRESS PERIOD    2
1
  VOLUMETRIC BUDGET FOR ENTIRE MODEL AT END OF TIME STEP   88, STRESS PERIOD   2
  ------------------------------------------------------------------------------

     CUMULATIVE VOLUMES      L**3       RATES FOR THIS TIME STEP      L**3/T
     ------------------                 ------------------------

           IN:                                      IN:
           ---                                      ---
             STORAGE =    91617232.0000               STORAGE =       3.0871E-02
       CONSTANT HEAD =           0.0000         CONSTANT HEAD =           0.0000
               WELLS =           0.0000                 WELLS =           0.0000
       RIVER LEAKAGE =   166054944.0000         RIVER LEAKAGE =       3.6000E-02
                  ET =           0.0000                    ET =           0.0000
     HEAD DEP BOUNDS =   143812464.0000       HEAD DEP BOUNDS =           0.1364
            RECHARGE =   675031552.0000              RECHARGE =           0.1670
          SWIADDTOCH =           0.0000            SWIADDTOCH =           0.0000

            TOTAL IN =  1076516224.0000              TOTAL IN =           0.3703

          OUT:                                     OUT:
          ----                                     ----
             STORAGE =      129756.6875               STORAGE =       1.8162E-04
       CONSTANT HEAD =           0.0000         CONSTANT HEAD =           0.0000
               WELLS =   531633792.0000                 WELLS =           0.3700
       RIVER LEAKAGE =    21630804.0000         RIVER LEAKAGE =           0.0000
                  ET =   166413648.0000                    ET =           0.0000
     HEAD DEP BOUNDS =   356720576.0000       HEAD DEP BOUNDS =       1.5652E-04
            RECHARGE =           0.0000              RECHARGE =           0.0000
          SWIADDTOCH =           0.0000            SWIADDTOCH =           0.0000

           TOTAL OUT =  1076528640.0000             TOTAL OUT =           0.3703

            IN - OUT =      -12416.0000              IN - OUT =       2.9802E-08

 PERCENT DISCREPANCY =          -0.00     PERCENT DISCREPANCY =           0.00






         TIME SUMMARY AT END OF TIME STEP   88 IN STRESS PERIOD    2
                    SECONDS     MINUTES      HOURS       DAYS        YEARS
                    -----------------------------------------------------------
   TIME STEP LENGTH 1.57680E+07 2.62800E+05  4380.0      182.50     0.49966    
 STRESS PERIOD TIME 1.38759E+09 2.31264E+07 3.85440E+05  16060.      43.970    
         TOTAL TIME 4.54119E+09 7.56865E+07 1.26144E+06  52560.      143.90    
1
 
 SOLVING FOR HEAD 

 CELL CONVERSIONS FOR ITER.=  2  LAYER=  1  STEP= 89  PERIOD=   2   (ROW,COL)
    DRY(  3, 24)   DRY(  9, 28)   DRY( 22, 35)   DRY( 38, 27)   

 CELL CONVERSIONS FOR ITER.=  3  LAYER=  1  STEP= 89  PERIOD=   2   (ROW,COL)
    DRY( 17, 33)   
     7 CALLS TO PCG ROUTINE FOR TIME STEP  89 IN STRESS PERIOD    2
    21 TOTAL ITERATIONS

 MAXIMUM HEAD CHANGE FOR EACH ITERATION (1 INDICATES THE FIRST INNER ITERATION):

    HEAD CHANGE    HEAD CHANGE    HEAD CHANGE    HEAD CHANGE    HEAD CHANGE 
   LAYER,ROW,COL  LAYER,ROW,COL  LAYER,ROW,COL  LAYER,ROW,COL  LAYER,ROW,COL
 ---------------------------------------------------------------------------
  1  0.3036      0 -0.1115      0 -0.2377E-01  0  0.5216E-02  0 -0.1790E-02
   (  2, 18, 11)  (  2, 19, 11)  (  2, 17, 11)  (  1, 19, 11)  (  2, 18, 10)
  0 -0.4514E-03  1 -0.5960E-01  0  0.1683E-01  0  0.2954E-02  0  0.5303E-03
   (  2, 29, 12)  (  2,  3, 24)  (  2,  3, 24)  (  2,  9, 28)  (  2,  9, 28)
  1 -0.3824E-01  0 -0.5977E-02  0 -0.1261E-02  0 -0.2042E-03  1  0.5052E-02
   (  2, 17, 33)  (  2, 15, 35)  (  2, 16, 34)  (  2, 51, 38)  (  2, 51, 38)
  0  0.4500E-03  1 -0.2427E-02  0 -0.1269E-03  1  0.1118E-02  0  0.6761E-04
   (  2, 51, 38)  (  2, 51, 38)  (  2, 51, 38)  (  2, 51, 38)  (  2, 51, 38)
  1 -0.6933E-03
   (  2, 12, 19)

 MAXIMUM RESIDUAL FOR EACH ITERATION (1 INDICATES THE FIRST INNER ITERATION):

    RESIDUAL       RESIDUAL       RESIDUAL       RESIDUAL       RESIDUAL    
   LAYER,ROW,COL  LAYER,ROW,COL  LAYER,ROW,COL  LAYER,ROW,COL  LAYER,ROW,COL
 ---------------------------------------------------------------------------
  1  0.5748E-03  0  0.2559E-03  0  0.4801E-04  0 -0.2037E-04  0 -0.5188E-05
   (  2, 19, 11)  (  2, 17, 11)  (  2, 16, 12)  (  1, 18, 11)  (  1, 18, 11)
  0  0.1941E-05  1  0.4210E-02  0  0.4414E-03  0  0.7585E-04  0  0.1712E-04
   (  1, 17, 12)  (  1, 17, 33)  (  1, 17, 33)  (  1, 17, 33)  (  1, 17, 33)
  1  0.2614E-04  0  0.8745E-05  0  0.1779E-05  0  0.4590E-06  1 -0.2760E-06
   (  2, 17, 33)  (  2, 16, 34)  (  2, 16, 34)  (  2, 19, 31)  (  2,  6, 11)
  0 -0.1337E-06  1 -0.9183E-07  0  0.4431E-07  1 -0.5472E-07  0 -0.2581E-07
   (  2, 16, 32)  (  2,  6, 11)  (  2, 50, 37)  (  2,  6, 11)  (  2, 50, 37)
  1 -0.4272E-07
   (  2, 13, 17)



 OUTPUT CONTROL FOR STRESS PERIOD    2   TIME STEP   89
    SAVE HEAD FOR ALL LAYERS
    SAVE DRAWDOWN FOR ALL LAYERS
    SAVE BUDGET
    PRINT BUDGET
 UBDSV1 SAVING "         STORAGE" ON UNIT   9 AT TIME STEP 89, STRESS PERIOD   2
 UBDSV2 SAVING "   CONSTANT HEAD" ON UNIT   9 AT TIME STEP 89, STRESS PERIOD   2
 UBDSV1 SAVING "FLOW RIGHT FACE " ON UNIT   9 AT TIME STEP 89, STRESS PERIOD   2
 UBDSV1 SAVING "FLOW FRONT FACE " ON UNIT   9 AT TIME STEP 89, STRESS PERIOD   2
 UBDSV1 SAVING "FLOW LOWER FACE " ON UNIT   9 AT TIME STEP 89, STRESS PERIOD   2
 UBDSV4 SAVING "           WELLS" ON UNIT   9 AT TIME STEP 89, STRESS PERIOD   2
 UBDSV4 SAVING "   RIVER LEAKAGE" ON UNIT   9 AT TIME STEP 89, STRESS PERIOD   2
 UBDSV3 SAVING "              ET" ON UNIT   9 AT TIME STEP 89, STRESS PERIOD   2
 UBDSV4 SAVING " HEAD DEP BOUNDS" ON UNIT   9 AT TIME STEP 89, STRESS PERIOD   2
 UBDSV3 SAVING "        RECHARGE" ON UNIT   9 AT TIME STEP 89, STRESS PERIOD   2
 SOLVING FOR ZETA FOR LAYER     1 ZONE     2
     2 CALLS TO PCG ROUTINE FOR TIME STEP  89 IN STRESS PERIOD    2
     4 TOTAL ITERATIONS

 MAXIMUM HEAD CHANGE FOR EACH ITERATION (1 INDICATES THE FIRST INNER ITERATION):

    HEAD CHANGE    HEAD CHANGE    HEAD CHANGE    HEAD CHANGE    HEAD CHANGE 
   LAYER,ROW,COL  LAYER,ROW,COL  LAYER,ROW,COL  LAYER,ROW,COL  LAYER,ROW,COL
 ---------------------------------------------------------------------------
  1   15.49      0  0.4034E-01  0  0.2075E-03  1 -0.1607E-05
   (  1, 19, 10)  (  1, 19, 11)  (  1, 12,  9)  (  1, 19, 11)

 MAXIMUM RESIDUAL FOR EACH ITERATION (1 INDICATES THE FIRST INNER ITERATION):

    RESIDUAL       RESIDUAL       RESIDUAL       RESIDUAL       RESIDUAL    
   LAYER,ROW,COL  LAYER,ROW,COL  LAYER,ROW,COL  LAYER,ROW,COL  LAYER,ROW,COL
 ---------------------------------------------------------------------------
  1 -0.1088E-04  0 -0.6349E-07  0  0.5123E-09  1  0.6657E-11
   (  1, 19, 11)  (  1, 12,  9)  (  1, 24,  4)  (  1, 23,  5)


 SOLVING FOR ZETA FOR LAYER     2 ZONE     2
     2 CALLS TO PCG ROUTINE FOR TIME STEP  89 IN STRESS PERIOD    2
     4 TOTAL ITERATIONS

 MAXIMUM HEAD CHANGE FOR EACH ITERATION (1 INDICATES THE FIRST INNER ITERATION):

    HEAD CHANGE    HEAD CHANGE    HEAD CHANGE    HEAD CHANGE    HEAD CHANGE 
   LAYER,ROW,COL  LAYER,ROW,COL  LAYER,ROW,COL  LAYER,ROW,COL  LAYER,ROW,COL
 ---------------------------------------------------------------------------
  1   8.250      0  0.9423E-01  0 -0.5351E-03  1  0.1048E-04
   (  1, 21, 11)  (  1, 22, 10)  (  1, 17, 11)  (  1, 28,  6)

 MAXIMUM RESIDUAL FOR EACH ITERATION (1 INDICATES THE FIRST INNER ITERATION):

    RESIDUAL       RESIDUAL       RESIDUAL       RESIDUAL       RESIDUAL    
   LAYER,ROW,COL  LAYER,ROW,COL  LAYER,ROW,COL  LAYER,ROW,COL  LAYER,ROW,COL
 ---------------------------------------------------------------------------
  1 -0.3499E-04  0  0.1659E-06  0 -0.3505E-08  1 -0.8358E-10
   (  1, 22, 10)  (  1, 17, 11)  (  1, 28,  6)  (  1, 29,  5)


 UBUDSV SAVING "      ZETASRF  1" ON UNIT170 AT TIME STEP 89, STRESS PERIOD    2


                      VOLUMETRIC SWI ZONE BUDGET FOR ENTIRE MODEL
                     AT END OF TIME STEP   89 IN STRESS PERIOD   2
                                      ZONE     1
  -----------------------------------------------------------------------------------

        CUMULATIVE VOLUMES      L**3       RATES FOR THIS TIME STEP      L**3/T
        ------------------                 ------------------------

              IN:                                      IN:
              ---                                      ---
             BOUNDARIES =   801418368.0000            BOUNDARIES =           0.1859
          CONSTANT HEAD =           0.0000         CONSTANT HEAD =           0.0000
            ZONE CHANGE =   206992576.0000           ZONE CHANGE =       5.1470E-02
       ZONE CHG TIP/TOE =    12436335.0000      ZONE CHG TIP/TOE =       3.2118E-03
            ZONE MIXING =           0.0000           ZONE MIXING =           0.0000

               TOTAL IN =  1020847296.0000              TOTAL IN =           0.2405

             OUT:                                     OUT:
             ----                                     ----
             BOUNDARIES =   916525760.0000            BOUNDARIES =           0.2391
          CONSTANT HEAD =           0.0000         CONSTANT HEAD =           0.0000
            ZONE CHANGE =    33363398.0000           ZONE CHANGE =       7.7526E-03
       ZONE CHG TIP/TOE =     9839779.0000      ZONE CHG TIP/TOE =       1.8688E-03
            ZONE MIXING =     1206592.3750           ZONE MIXING =       3.5500E-03

              TOTAL OUT =   960935552.0000             TOTAL OUT =           0.2523

               IN - OUT =    59911744.0000              IN - OUT =      -1.1772E-02

    PERCENT DISCREPANCY =           6.05     PERCENT DISCREPANCY =          -4.78



                      VOLUMETRIC SWI ZONE BUDGET FOR ENTIRE MODEL
                     AT END OF TIME STEP   89 IN STRESS PERIOD   2
                                      ZONE     2
  -----------------------------------------------------------------------------------

        CUMULATIVE VOLUMES      L**3       RATES FOR THIS TIME STEP      L**3/T
        ------------------                 ------------------------

              IN:                                      IN:
              ---                                      ---
             BOUNDARIES =   135011040.0000            BOUNDARIES =           0.1334
          CONSTANT HEAD =           0.0000         CONSTANT HEAD =           0.0000
            ZONE CHANGE =    28261668.0000           ZONE CHANGE =       7.3016E-03
       ZONE CHG TIP/TOE =    24538574.0000      ZONE CHG TIP/TOE =       1.0194E-02
            ZONE MIXING =     1206592.3750           ZONE MIXING =       3.5500E-03

               TOTAL IN =   189017872.0000              TOTAL IN =           0.1544

             OUT:                                     OUT:
             ----                                     ----
             BOUNDARIES =   117353256.0000            BOUNDARIES =           0.1114
          CONSTANT HEAD =           0.0000         CONSTANT HEAD =           0.0000
            ZONE CHANGE =    64719132.0000           ZONE CHANGE =       3.3937E-02
       ZONE CHG TIP/TOE =     7871272.0000      ZONE CHG TIP/TOE =       2.5368E-03
            ZONE MIXING =           0.0000           ZONE MIXING =           0.0000

              TOTAL OUT =   189943648.0000             TOTAL OUT =           0.1479

               IN - OUT =     -925776.0000              IN - OUT =       6.5707E-03

    PERCENT DISCREPANCY =          -0.49     PERCENT DISCREPANCY =           4.35


 HEAD WILL BE SAVED ON UNIT   37 AT END OF TIME STEP   89, STRESS PERIOD    2

 DRAWDOWN WILL BE SAVED ON UNIT   38 AT END OF TIME STEP   89, STRESS PERIOD    2
1
  VOLUMETRIC BUDGET FOR ENTIRE MODEL AT END OF TIME STEP   89, STRESS PERIOD   2
  ------------------------------------------------------------------------------

     CUMULATIVE VOLUMES      L**3       RATES FOR THIS TIME STEP      L**3/T
     ------------------                 ------------------------

           IN:                                      IN:
           ---                                      ---
             STORAGE =    92115240.0000               STORAGE =       3.1583E-02
       CONSTANT HEAD =           0.0000         CONSTANT HEAD =           0.0000
               WELLS =           0.0000                 WELLS =           0.0000
       RIVER LEAKAGE =   166622592.0000         RIVER LEAKAGE =       3.6000E-02
                  ET =           0.0000                    ET =           0.0000
     HEAD DEP BOUNDS =   145968640.0000       HEAD DEP BOUNDS =           0.1367
            RECHARGE =   677650560.0000              RECHARGE =           0.1661
          SWIADDTOCH =           0.0000            SWIADDTOCH =           0.0000

            TOTAL IN =  1082356992.0000              TOTAL IN =           0.3704

          OUT:                                     OUT:
          ----                                     ----
             STORAGE =      134493.8906               STORAGE =       3.0043E-04
       CONSTANT HEAD =           0.0000         CONSTANT HEAD =           0.0000
               WELLS =   537467968.0000                 WELLS =           0.3700
       RIVER LEAKAGE =    21630804.0000         RIVER LEAKAGE =           0.0000
                  ET =   166413648.0000                    ET =           0.0000
     HEAD DEP BOUNDS =   356722528.0000       HEAD DEP BOUNDS =       1.2284E-04
            RECHARGE =           0.0000              RECHARGE =           0.0000
          SWIADDTOCH =           0.0000            SWIADDTOCH =           0.0000

           TOTAL OUT =  1082369408.0000             TOTAL OUT =           0.3704

            IN - OUT =      -12416.0000              IN - OUT =      -2.9802E-08

 PERCENT DISCREPANCY =          -0.00     PERCENT DISCREPANCY =          -0.00






         TIME SUMMARY AT END OF TIME STEP   89 IN STRESS PERIOD    2
                    SECONDS     MINUTES      HOURS       DAYS        YEARS
                    -----------------------------------------------------------
   TIME STEP LENGTH 1.57680E+07 2.62800E+05  4380.0      182.50     0.49966    
 STRESS PERIOD TIME 1.40335E+09 2.33892E+07 3.89820E+05  16243.      44.470    
         TOTAL TIME 4.55696E+09 7.59493E+07 1.26582E+06  52743.      144.40    
1
 
 SOLVING FOR HEAD 

 CELL CONVERSIONS FOR ITER.=  4  LAYER=  1  STEP= 90  PERIOD=   2   (ROW,COL)
    DRY( 43, 31)   

 CELL CONVERSIONS FOR ITER.=  5  LAYER=  1  STEP= 90  PERIOD=   2   (ROW,COL)
    DRY( 41, 28)   
     7 CALLS TO PCG ROUTINE FOR TIME STEP  90 IN STRESS PERIOD    2
    23 TOTAL ITERATIONS

 MAXIMUM HEAD CHANGE FOR EACH ITERATION (1 INDICATES THE FIRST INNER ITERATION):

    HEAD CHANGE    HEAD CHANGE    HEAD CHANGE    HEAD CHANGE    HEAD CHANGE 
   LAYER,ROW,COL  LAYER,ROW,COL  LAYER,ROW,COL  LAYER,ROW,COL  LAYER,ROW,COL
 ---------------------------------------------------------------------------
  1 -0.2875      0 -0.9249E-01  0 -0.1784E-01  0 -0.3765E-02  0 -0.1201E-02
   (  2, 17, 11)  (  2, 16, 12)  (  2, 20, 12)  (  1, 18, 11)  (  2, 15, 11)
  0  0.3129E-03  1 -0.7365E-01  0 -0.2879E-02  0 -0.6907E-03  1 -0.1195E-01
   (  1, 15, 10)  (  1, 41, 28)  (  1, 41, 28)  (  1, 41, 28)  (  2, 51, 38)
  0 -0.1762E-03  1 -0.6705E-01  0  0.1571E-01  0  0.1575E-02  0  0.1894E-03
   (  2, 41, 27)  (  2, 43, 31)  (  2, 43, 31)  (  2, 43, 31)  (  2, 43, 31)
  1 -0.2255      0 -0.2540E-01  0 -0.5753E-02  0 -0.1021E-02  0 -0.2935E-03
   (  2, 41, 28)  (  2, 39, 29)  (  2, 42, 27)  (  2, 47, 22)  (  2, 48, 22)
  1  0.1228E-02  0  0.6078E-03  1 -0.3356E-03
   (  2, 51, 38)  (  2, 51, 38)  (  2, 51, 38)

 MAXIMUM RESIDUAL FOR EACH ITERATION (1 INDICATES THE FIRST INNER ITERATION):

    RESIDUAL       RESIDUAL       RESIDUAL       RESIDUAL       RESIDUAL    
   LAYER,ROW,COL  LAYER,ROW,COL  LAYER,ROW,COL  LAYER,ROW,COL  LAYER,ROW,COL
 ---------------------------------------------------------------------------
  1 -0.4727E-03  0 -0.1570E-03  0  0.3763E-04  0  0.1386E-04  0  0.4472E-05
   (  2, 17, 11)  (  2, 17, 11)  (  1, 18, 11)  (  2, 20, 10)  (  2, 20, 10)
  0  0.1308E-05  1  0.1607E-04  0 -0.2714E-05  0  0.7132E-06  1 -0.1249E-05
   (  2, 19, 10)  (  1, 43, 31)  (  2, 17, 11)  (  1, 43, 31)  (  2, 43, 31)
  0  0.3727E-06  1 -0.9304E-02  0  0.6512E-03  0 -0.8793E-04  0 -0.2608E-04
   (  2, 41, 28)  (  2, 41, 28)  (  1, 41, 28)  (  2, 41, 28)  (  2, 41, 28)
  1  0.1352E-03  0  0.4441E-04  0  0.6245E-05  0  0.2234E-05  0  0.6727E-06
   (  2, 41, 28)  (  2, 40, 29)  (  2, 40, 29)  (  2, 39, 30)  (  2, 43, 26)
  1  0.1067E-05  0  0.3425E-06  1  0.1967E-06
   (  1, 39, 27)  (  1, 39, 27)  (  1, 39, 27)



 OUTPUT CONTROL FOR STRESS PERIOD    2   TIME STEP   90
    SAVE HEAD FOR ALL LAYERS
    SAVE DRAWDOWN FOR ALL LAYERS
    SAVE BUDGET
    PRINT BUDGET
 UBDSV1 SAVING "         STORAGE" ON UNIT   9 AT TIME STEP 90, STRESS PERIOD   2
 UBDSV2 SAVING "   CONSTANT HEAD" ON UNIT   9 AT TIME STEP 90, STRESS PERIOD   2
 UBDSV1 SAVING "FLOW RIGHT FACE " ON UNIT   9 AT TIME STEP 90, STRESS PERIOD   2
 UBDSV1 SAVING "FLOW FRONT FACE " ON UNIT   9 AT TIME STEP 90, STRESS PERIOD   2
 UBDSV1 SAVING "FLOW LOWER FACE " ON UNIT   9 AT TIME STEP 90, STRESS PERIOD   2
 UBDSV4 SAVING "           WELLS" ON UNIT   9 AT TIME STEP 90, STRESS PERIOD   2
 UBDSV4 SAVING "   RIVER LEAKAGE" ON UNIT   9 AT TIME STEP 90, STRESS PERIOD   2
 UBDSV3 SAVING "              ET" ON UNIT   9 AT TIME STEP 90, STRESS PERIOD   2
 UBDSV4 SAVING " HEAD DEP BOUNDS" ON UNIT   9 AT TIME STEP 90, STRESS PERIOD   2
 UBDSV3 SAVING "        RECHARGE" ON UNIT   9 AT TIME STEP 90, STRESS PERIOD   2
 SOLVING FOR ZETA FOR LAYER     1 ZONE     2
     2 CALLS TO PCG ROUTINE FOR TIME STEP  90 IN STRESS PERIOD    2
     4 TOTAL ITERATIONS

 MAXIMUM HEAD CHANGE FOR EACH ITERATION (1 INDICATES THE FIRST INNER ITERATION):

    HEAD CHANGE    HEAD CHANGE    HEAD CHANGE    HEAD CHANGE    HEAD CHANGE 
   LAYER,ROW,COL  LAYER,ROW,COL  LAYER,ROW,COL  LAYER,ROW,COL  LAYER,ROW,COL
 ---------------------------------------------------------------------------
  1   32.98      0  0.1157      0  0.6871E-03  1 -0.4639E-05
   (  1, 18, 10)  (  1, 17,  8)  (  1, 16,  9)  (  1, 16, 11)

 MAXIMUM RESIDUAL FOR EACH ITERATION (1 INDICATES THE FIRST INNER ITERATION):

    RESIDUAL       RESIDUAL       RESIDUAL       RESIDUAL       RESIDUAL    
   LAYER,ROW,COL  LAYER,ROW,COL  LAYER,ROW,COL  LAYER,ROW,COL  LAYER,ROW,COL
 ---------------------------------------------------------------------------
  1 -0.3894E-04  0 -0.2332E-06  0  0.1235E-08  1  0.9291E-11
   (  1, 17,  8)  (  1, 16,  9)  (  1, 16, 11)  (  1, 17, 10)


 SOLVING FOR ZETA FOR LAYER     2 ZONE     2
     2 CALLS TO PCG ROUTINE FOR TIME STEP  90 IN STRESS PERIOD    2
     4 TOTAL ITERATIONS

 MAXIMUM HEAD CHANGE FOR EACH ITERATION (1 INDICATES THE FIRST INNER ITERATION):

    HEAD CHANGE    HEAD CHANGE    HEAD CHANGE    HEAD CHANGE    HEAD CHANGE 
   LAYER,ROW,COL  LAYER,ROW,COL  LAYER,ROW,COL  LAYER,ROW,COL  LAYER,ROW,COL
 ---------------------------------------------------------------------------
  1   6.373      0  0.8699E-01  0  0.5537E-03  1  0.5552E-05
   (  1, 21, 11)  (  1, 22, 10)  (  1, 21, 11)  (  1, 32,  3)

 MAXIMUM RESIDUAL FOR EACH ITERATION (1 INDICATES THE FIRST INNER ITERATION):

    RESIDUAL       RESIDUAL       RESIDUAL       RESIDUAL       RESIDUAL    
   LAYER,ROW,COL  LAYER,ROW,COL  LAYER,ROW,COL  LAYER,ROW,COL  LAYER,ROW,COL
 ---------------------------------------------------------------------------
  1 -0.3206E-04  0 -0.1734E-06  0 -0.2094E-08  1  0.4190E-10
   (  1, 22, 10)  (  1, 21, 11)  (  1, 32,  3)  (  1, 28,  6)


 UBUDSV SAVING "      ZETASRF  1" ON UNIT170 AT TIME STEP 90, STRESS PERIOD    2


                      VOLUMETRIC SWI ZONE BUDGET FOR ENTIRE MODEL
                     AT END OF TIME STEP   90 IN STRESS PERIOD   2
                                      ZONE     1
  -----------------------------------------------------------------------------------

        CUMULATIVE VOLUMES      L**3       RATES FOR THIS TIME STEP      L**3/T
        ------------------                 ------------------------

              IN:                                      IN:
              ---                                      ---
             BOUNDARIES =   804329344.0000            BOUNDARIES =           0.1846
          CONSTANT HEAD =           0.0000         CONSTANT HEAD =           0.0000
            ZONE CHANGE =   207756736.0000           ZONE CHANGE =       4.8462E-02
       ZONE CHG TIP/TOE =    12526633.0000      ZONE CHG TIP/TOE =       5.7267E-03
            ZONE MIXING =           0.0000           ZONE MIXING =           0.0000

               TOTAL IN =  1024612736.0000              TOTAL IN =           0.2388

             OUT:                                     OUT:
             ----                                     ----
             BOUNDARIES =   920675392.0000            BOUNDARIES =           0.2632
          CONSTANT HEAD =           0.0000         CONSTANT HEAD =           0.0000
            ZONE CHANGE =    33567180.0000           ZONE CHANGE =       1.2924E-02
       ZONE CHG TIP/TOE =     9918945.0000      ZONE CHG TIP/TOE =       5.0207E-03
            ZONE MIXING =     1206592.3750           ZONE MIXING =           0.0000

              TOTAL OUT =   965368128.0000             TOTAL OUT =           0.2811

               IN - OUT =    59244608.0000              IN - OUT =      -4.2310E-02

    PERCENT DISCREPANCY =           5.95     PERCENT DISCREPANCY =         -16.28



                      VOLUMETRIC SWI ZONE BUDGET FOR ENTIRE MODEL
                     AT END OF TIME STEP   90 IN STRESS PERIOD   2
                                      ZONE     2
  -----------------------------------------------------------------------------------

        CUMULATIVE VOLUMES      L**3       RATES FOR THIS TIME STEP      L**3/T
        ------------------                 ------------------------

              IN:                                      IN:
              ---                                      ---
             BOUNDARIES =   137120944.0000            BOUNDARIES =           0.1338
          CONSTANT HEAD =           0.0000         CONSTANT HEAD =           0.0000
            ZONE CHANGE =    28428490.0000           ZONE CHANGE =       1.0580E-02
       ZONE CHG TIP/TOE =    25316312.0000      ZONE CHG TIP/TOE =       4.9324E-02
            ZONE MIXING =     1206592.3750           ZONE MIXING =           0.0000

               TOTAL IN =   192072336.0000              TOTAL IN =           0.1937

             OUT:                                     OUT:
             ----                                     ----
             BOUNDARIES =   118730376.0000            BOUNDARIES =       8.7336E-02
          CONSTANT HEAD =           0.0000         CONSTANT HEAD =           0.0000
            ZONE CHANGE =    65765436.0000           ZONE CHANGE =       6.6356E-02
       ZONE CHG TIP/TOE =     7919272.0000      ZONE CHG TIP/TOE =       3.0441E-03
            ZONE MIXING =           0.0000           ZONE MIXING =           0.0000

              TOTAL OUT =   192415072.0000             TOTAL OUT =           0.1567

               IN - OUT =     -342736.0000              IN - OUT =       3.6976E-02

    PERCENT DISCREPANCY =          -0.18     PERCENT DISCREPANCY =          21.10


 HEAD WILL BE SAVED ON UNIT   37 AT END OF TIME STEP   90, STRESS PERIOD    2

 DRAWDOWN WILL BE SAVED ON UNIT   38 AT END OF TIME STEP   90, STRESS PERIOD    2
1
  VOLUMETRIC BUDGET FOR ENTIRE MODEL AT END OF TIME STEP   90, STRESS PERIOD   2
  ------------------------------------------------------------------------------

     CUMULATIVE VOLUMES      L**3       RATES FOR THIS TIME STEP      L**3/T
     ------------------                 ------------------------

           IN:                                      IN:
           ---                                      ---
             STORAGE =    92623144.0000               STORAGE =       3.2211E-02
       CONSTANT HEAD =           0.0000         CONSTANT HEAD =           0.0000
               WELLS =           0.0000                 WELLS =           0.0000
       RIVER LEAKAGE =   167174480.0000         RIVER LEAKAGE =       3.5000E-02
                  ET =           0.0000                    ET =           0.0000
     HEAD DEP BOUNDS =   148133648.0000       HEAD DEP BOUNDS =           0.1373
            RECHARGE =   680263552.0000              RECHARGE =           0.1657
          SWIADDTOCH =           0.0000            SWIADDTOCH =           0.0000

            TOTAL IN =  1088194816.0000              TOTAL IN =           0.3702

          OUT:                                     OUT:
          ----                                     ----
             STORAGE =      136528.9531               STORAGE =       1.2906E-04
       CONSTANT HEAD =           0.0000         CONSTANT HEAD =           0.0000
               WELLS =   543302144.0000                 WELLS =           0.3700
       RIVER LEAKAGE =    21630804.0000         RIVER LEAKAGE =           0.0000
                  ET =   166413648.0000                    ET =           0.0000
     HEAD DEP BOUNDS =   356724128.0000       HEAD DEP BOUNDS =       1.0109E-04
            RECHARGE =           0.0000              RECHARGE =           0.0000
          SWIADDTOCH =           0.0000            SWIADDTOCH =           0.0000

           TOTAL OUT =  1088207232.0000             TOTAL OUT =           0.3702

            IN - OUT =      -12416.0000              IN - OUT =      -1.4901E-07

 PERCENT DISCREPANCY =          -0.00     PERCENT DISCREPANCY =          -0.00






         TIME SUMMARY AT END OF TIME STEP   90 IN STRESS PERIOD    2
                    SECONDS     MINUTES      HOURS       DAYS        YEARS
                    -----------------------------------------------------------
   TIME STEP LENGTH 1.57680E+07 2.62800E+05  4380.0      182.50     0.49966    
 STRESS PERIOD TIME 1.41912E+09 2.36520E+07 3.94200E+05  16425.      44.969    
         TOTAL TIME 4.57273E+09 7.62121E+07 1.27020E+06  52925.      144.90    
1
 
 SOLVING FOR HEAD 

 CELL CONVERSIONS FOR ITER.=  2  LAYER=  1  STEP= 91  PERIOD=   2   (ROW,COL)
    DRY( 18, 34)   DRY( 19, 35)   DRY( 36, 30)   

 CELL CONVERSIONS FOR ITER.=  2  LAYER=  2  STEP= 91  PERIOD=   2   (ROW,COL)
    DRY( 12, 19)   
     8 CALLS TO PCG ROUTINE FOR TIME STEP  91 IN STRESS PERIOD    2
    21 TOTAL ITERATIONS

 MAXIMUM HEAD CHANGE FOR EACH ITERATION (1 INDICATES THE FIRST INNER ITERATION):

    HEAD CHANGE    HEAD CHANGE    HEAD CHANGE    HEAD CHANGE    HEAD CHANGE 
   LAYER,ROW,COL  LAYER,ROW,COL  LAYER,ROW,COL  LAYER,ROW,COL  LAYER,ROW,COL
 ---------------------------------------------------------------------------
  1  0.2566      0  0.8727E-01  0 -0.1907E-01  0 -0.4905E-02  0 -0.1629E-02
   (  2, 17, 11)  (  2, 16, 12)  (  1, 15, 11)  (  2, 12, 12)  (  2,  7, 12)
  0  0.5071E-03  1 -0.4766E-01  0 -0.9545E-02  0  0.1730E-02  0  0.4079E-03
   (  2,  5, 11)  (  2, 19, 35)  (  2, 16, 36)  (  2, 54, 33)  (  2, 54, 33)
  1 -0.1009E-01  0 -0.5942E-03  1  0.6313E-02  0  0.2551E-03  1 -0.3951E-02
   (  2, 51, 38)  (  2, 51, 38)  (  2, 51, 38)  (  2, 51, 38)  (  2, 51, 38)
  0 -0.1253E-03  1  0.2473E-02  0  0.6650E-04  1 -0.1558E-02  0 -0.3458E-04
   (  2, 51, 38)  (  2, 51, 38)  (  2, 51, 38)  (  2, 51, 38)  (  2, 51, 38)
  1  0.9807E-03
   (  2, 51, 38)

 MAXIMUM RESIDUAL FOR EACH ITERATION (1 INDICATES THE FIRST INNER ITERATION):

    RESIDUAL       RESIDUAL       RESIDUAL       RESIDUAL       RESIDUAL    
   LAYER,ROW,COL  LAYER,ROW,COL  LAYER,ROW,COL  LAYER,ROW,COL  LAYER,ROW,COL
 ---------------------------------------------------------------------------
  1  0.5466E-03  0  0.1918E-03  0 -0.3958E-04  0 -0.1211E-04  0 -0.5365E-05
   (  2, 18, 11)  (  2, 20, 10)  (  2, 14, 10)  (  2, 20, 11)  (  2, 21,  8)
  0 -0.1685E-05  1  0.2841E-04  0  0.8174E-05  0  0.1746E-05  0 -0.6278E-06
   (  2, 13, 10)  (  2, 36, 30)  (  2, 37, 29)  (  2, 35, 31)  (  2, 17, 36)
  1 -0.6562E-06  0 -0.1672E-06  1 -0.3195E-06  0 -0.9500E-07  1 -0.1430E-06
   (  2,  5, 11)  (  2, 52, 34)  (  2,  5, 11)  (  2, 50, 37)  (  2,  5, 11)
  0  0.6619E-07  1 -0.8550E-07  0 -0.4376E-07  1  0.5528E-07  0  0.2737E-07
   (  2, 50, 37)  (  2, 50, 37)  (  2, 50, 37)  (  2, 50, 37)  (  2, 50, 37)
  1 -0.3476E-07
   (  2, 50, 37)



 OUTPUT CONTROL FOR STRESS PERIOD    2   TIME STEP   91
    SAVE HEAD FOR ALL LAYERS
    SAVE DRAWDOWN FOR ALL LAYERS
    SAVE BUDGET
    PRINT BUDGET
 UBDSV1 SAVING "         STORAGE" ON UNIT   9 AT TIME STEP 91, STRESS PERIOD   2
 UBDSV2 SAVING "   CONSTANT HEAD" ON UNIT   9 AT TIME STEP 91, STRESS PERIOD   2
 UBDSV1 SAVING "FLOW RIGHT FACE " ON UNIT   9 AT TIME STEP 91, STRESS PERIOD   2
 UBDSV1 SAVING "FLOW FRONT FACE " ON UNIT   9 AT TIME STEP 91, STRESS PERIOD   2
 UBDSV1 SAVING "FLOW LOWER FACE " ON UNIT   9 AT TIME STEP 91, STRESS PERIOD   2
 UBDSV4 SAVING "           WELLS" ON UNIT   9 AT TIME STEP 91, STRESS PERIOD   2
 UBDSV4 SAVING "   RIVER LEAKAGE" ON UNIT   9 AT TIME STEP 91, STRESS PERIOD   2
 UBDSV3 SAVING "              ET" ON UNIT   9 AT TIME STEP 91, STRESS PERIOD   2
 UBDSV4 SAVING " HEAD DEP BOUNDS" ON UNIT   9 AT TIME STEP 91, STRESS PERIOD   2
 UBDSV3 SAVING "        RECHARGE" ON UNIT   9 AT TIME STEP 91, STRESS PERIOD   2
 SOLVING FOR ZETA FOR LAYER     1 ZONE     2
     2 CALLS TO PCG ROUTINE FOR TIME STEP  91 IN STRESS PERIOD    2
     4 TOTAL ITERATIONS

 MAXIMUM HEAD CHANGE FOR EACH ITERATION (1 INDICATES THE FIRST INNER ITERATION):

    HEAD CHANGE    HEAD CHANGE    HEAD CHANGE    HEAD CHANGE    HEAD CHANGE 
   LAYER,ROW,COL  LAYER,ROW,COL  LAYER,ROW,COL  LAYER,ROW,COL  LAYER,ROW,COL
 ---------------------------------------------------------------------------
  1   10.89      0  0.1804E-01  0 -0.1497E-03  1 -0.1051E-05
   (  1, 15, 10)  (  1, 23,  8)  (  1, 24,  5)  (  1, 25,  4)

 MAXIMUM RESIDUAL FOR EACH ITERATION (1 INDICATES THE FIRST INNER ITERATION):

    RESIDUAL       RESIDUAL       RESIDUAL       RESIDUAL       RESIDUAL    
   LAYER,ROW,COL  LAYER,ROW,COL  LAYER,ROW,COL  LAYER,ROW,COL  LAYER,ROW,COL
 ---------------------------------------------------------------------------
  1 -0.5493E-05  0 -0.4861E-07  0  0.3330E-09  1  0.4573E-11
   (  1, 23,  8)  (  1, 12,  9)  (  1, 25,  4)  (  1, 24,  5)


 SOLVING FOR ZETA FOR LAYER     2 ZONE     2
     2 CALLS TO PCG ROUTINE FOR TIME STEP  91 IN STRESS PERIOD    2
     4 TOTAL ITERATIONS

 MAXIMUM HEAD CHANGE FOR EACH ITERATION (1 INDICATES THE FIRST INNER ITERATION):

    HEAD CHANGE    HEAD CHANGE    HEAD CHANGE    HEAD CHANGE    HEAD CHANGE 
   LAYER,ROW,COL  LAYER,ROW,COL  LAYER,ROW,COL  LAYER,ROW,COL  LAYER,ROW,COL
 ---------------------------------------------------------------------------
  1   6.776      0  0.7486E-01  0  0.7734E-03  1  0.6106E-05
   (  1, 17, 11)  (  1, 22, 10)  (  1, 21, 11)  (  1, 23, 10)

 MAXIMUM RESIDUAL FOR EACH ITERATION (1 INDICATES THE FIRST INNER ITERATION):

    RESIDUAL       RESIDUAL       RESIDUAL       RESIDUAL       RESIDUAL    
   LAYER,ROW,COL  LAYER,ROW,COL  LAYER,ROW,COL  LAYER,ROW,COL  LAYER,ROW,COL
 ---------------------------------------------------------------------------
  1 -0.2622E-04  0 -0.2571E-06  0 -0.2010E-08  1 -0.3051E-10
   (  1, 22, 10)  (  1, 21, 11)  (  1, 32,  3)  (  1, 31,  4)


 UBUDSV SAVING "      ZETASRF  1" ON UNIT170 AT TIME STEP 91, STRESS PERIOD    2


                      VOLUMETRIC SWI ZONE BUDGET FOR ENTIRE MODEL
                     AT END OF TIME STEP   91 IN STRESS PERIOD   2
                                      ZONE     1
  -----------------------------------------------------------------------------------

        CUMULATIVE VOLUMES      L**3       RATES FOR THIS TIME STEP      L**3/T
        ------------------                 ------------------------

              IN:                                      IN:
              ---                                      ---
             BOUNDARIES =   807232640.0000            BOUNDARIES =           0.1841
          CONSTANT HEAD =           0.0000         CONSTANT HEAD =           0.0000
            ZONE CHANGE =   208519104.0000           ZONE CHANGE =       4.8349E-02
       ZONE CHG TIP/TOE =    12728181.0000      ZONE CHG TIP/TOE =       1.2782E-02
            ZONE MIXING =           0.0000           ZONE MIXING =           0.0000

               TOTAL IN =  1028479936.0000              TOTAL IN =           0.2453

             OUT:                                     OUT:
             ----                                     ----
             BOUNDARIES =   924189440.0000            BOUNDARIES =           0.2229
          CONSTANT HEAD =           0.0000         CONSTANT HEAD =           0.0000
            ZONE CHANGE =    33693820.0000           ZONE CHANGE =       8.0314E-03
       ZONE CHG TIP/TOE =    10085163.0000      ZONE CHG TIP/TOE =       1.0541E-02
            ZONE MIXING =     1257405.5000           ZONE MIXING =       3.2225E-03

              TOTAL OUT =   969225856.0000             TOTAL OUT =           0.2447

               IN - OUT =    59254080.0000              IN - OUT =       6.0116E-04

    PERCENT DISCREPANCY =           5.93     PERCENT DISCREPANCY =           0.25



                      VOLUMETRIC SWI ZONE BUDGET FOR ENTIRE MODEL
                     AT END OF TIME STEP   91 IN STRESS PERIOD   2
                                      ZONE     2
  -----------------------------------------------------------------------------------

        CUMULATIVE VOLUMES      L**3       RATES FOR THIS TIME STEP      L**3/T
        ------------------                 ------------------------

              IN:                                      IN:
              ---                                      ---
             BOUNDARIES =   139234736.0000            BOUNDARIES =           0.1341
          CONSTANT HEAD =           0.0000         CONSTANT HEAD =           0.0000
            ZONE CHANGE =    28541092.0000           ZONE CHANGE =       7.1412E-03
       ZONE CHG TIP/TOE =    25548148.0000      ZONE CHG TIP/TOE =       1.4703E-02
            ZONE MIXING =     1257405.5000           ZONE MIXING =       3.2225E-03

               TOTAL IN =   194581376.0000              TOTAL IN =           0.1591

             OUT:                                     OUT:
             ----                                     ----
             BOUNDARIES =   120742752.0000            BOUNDARIES =           0.1276
          CONSTANT HEAD =           0.0000         CONSTANT HEAD =           0.0000
            ZONE CHANGE =    66171344.0000           ZONE CHANGE =       2.5742E-02
       ZONE CHG TIP/TOE =     8104200.5000      ZONE CHG TIP/TOE =       1.1728E-02
            ZONE MIXING =           0.0000           ZONE MIXING =           0.0000

              TOTAL OUT =   195018304.0000             TOTAL OUT =           0.1651

               IN - OUT =     -436928.0000              IN - OUT =      -5.9718E-03

    PERCENT DISCREPANCY =          -0.22     PERCENT DISCREPANCY =          -3.68


 HEAD WILL BE SAVED ON UNIT   37 AT END OF TIME STEP   91, STRESS PERIOD    2

 DRAWDOWN WILL BE SAVED ON UNIT   38 AT END OF TIME STEP   91, STRESS PERIOD    2
1
  VOLUMETRIC BUDGET FOR ENTIRE MODEL AT END OF TIME STEP   91, STRESS PERIOD   2
  ------------------------------------------------------------------------------

     CUMULATIVE VOLUMES      L**3       RATES FOR THIS TIME STEP      L**3/T
     ------------------                 ------------------------

           IN:                                      IN:
           ---                                      ---
             STORAGE =    93137816.0000               STORAGE =       3.2640E-02
       CONSTANT HEAD =           0.0000         CONSTANT HEAD =           0.0000
               WELLS =           0.0000                 WELLS =           0.0000
       RIVER LEAKAGE =   167726368.0000         RIVER LEAKAGE =       3.5000E-02
                  ET =           0.0000                    ET =           0.0000
     HEAD DEP BOUNDS =   150303840.0000       HEAD DEP BOUNDS =           0.1376
            RECHARGE =   682867584.0000              RECHARGE =           0.1651
          SWIADDTOCH =           0.0000            SWIADDTOCH =           0.0000

            TOTAL IN =  1094035584.0000              TOTAL IN =           0.3704

          OUT:                                     OUT:
          ----                                     ----
             STORAGE =      141859.2031               STORAGE =       3.3804E-04
       CONSTANT HEAD =           0.0000         CONSTANT HEAD =           0.0000
               WELLS =   549136320.0000                 WELLS =           0.3700
       RIVER LEAKAGE =    21630804.0000         RIVER LEAKAGE =           0.0000
                  ET =   166413648.0000                    ET =           0.0000
     HEAD DEP BOUNDS =   356725376.0000       HEAD DEP BOUNDS =       7.9273E-05
            RECHARGE =           0.0000              RECHARGE =           0.0000
          SWIADDTOCH =           0.0000            SWIADDTOCH =           0.0000

           TOTAL OUT =  1094048000.0000             TOTAL OUT =           0.3704

            IN - OUT =      -12416.0000              IN - OUT =           0.0000

 PERCENT DISCREPANCY =          -0.00     PERCENT DISCREPANCY =           0.00






         TIME SUMMARY AT END OF TIME STEP   91 IN STRESS PERIOD    2
                    SECONDS     MINUTES      HOURS       DAYS        YEARS
                    -----------------------------------------------------------
   TIME STEP LENGTH 1.57680E+07 2.62800E+05  4380.0      182.50     0.49966    
 STRESS PERIOD TIME 1.43489E+09 2.39148E+07 3.98580E+05  16608.      45.469    
         TOTAL TIME 4.58849E+09 7.64749E+07 1.27458E+06  53108.      145.40    
1
 
 SOLVING FOR HEAD 

 CELL CONVERSIONS FOR ITER.=  2  LAYER=  1  STEP= 92  PERIOD=   2   (ROW,COL)
    DRY( 38, 28)   

 CELL CONVERSIONS FOR ITER.=  3  LAYER=  1  STEP= 92  PERIOD=   2   (ROW,COL)
    DRY( 39, 27)   

 CELL CONVERSIONS FOR ITER.=  4  LAYER=  1  STEP= 92  PERIOD=   2   (ROW,COL)
    DRY( 41, 27)   
    10 CALLS TO PCG ROUTINE FOR TIME STEP  92 IN STRESS PERIOD    2
    30 TOTAL ITERATIONS

 MAXIMUM HEAD CHANGE FOR EACH ITERATION (1 INDICATES THE FIRST INNER ITERATION):

    HEAD CHANGE    HEAD CHANGE    HEAD CHANGE    HEAD CHANGE    HEAD CHANGE 
   LAYER,ROW,COL  LAYER,ROW,COL  LAYER,ROW,COL  LAYER,ROW,COL  LAYER,ROW,COL
 ---------------------------------------------------------------------------
  1 -0.3702      0 -0.1154      0 -0.2347E-01  0 -0.5051E-02  0 -0.1603E-02
   (  1, 17, 11)  (  1, 16, 12)  (  2, 19, 12)  (  2, 13, 10)  (  2,  6, 10)
  0  0.5294E-03  1 -0.5066E-01  0  0.1334E-01  0  0.2236E-02  0  0.4053E-03
   (  2,  6, 10)  (  2, 38, 28)  (  2, 38, 28)  (  2, 38, 28)  (  2, 38, 28)
  1 -0.6174E-01  0  0.1594E-01  0  0.2105E-02  0  0.3050E-03  1 -0.2253    
   (  2, 39, 27)  (  2, 39, 27)  (  2, 39, 27)  (  2, 39, 27)  (  2, 41, 27)
  0 -0.2367E-01  0 -0.5624E-02  0 -0.1045E-02  0 -0.2707E-03  1 -0.3746E-02
   (  2, 40, 29)  (  2, 42, 26)  (  2, 47, 22)  (  2, 47, 22)  (  2, 51, 38)
  0 -0.9892E-03  1  0.2755E-02  0  0.3783E-03  1 -0.2134E-02  0 -0.6110E-04
   (  2, 51, 38)  (  2, 51, 38)  (  2, 51, 38)  (  2, 51, 38)  (  2, 51, 38)
  1  0.1524E-02  0  0.2935E-04  1 -0.1089E-02  0 -0.1564E-04  1  0.7756E-03
   (  2, 51, 38)  (  2, 51, 38)  (  2, 51, 38)  (  2, 51, 38)  (  2, 51, 38)

 MAXIMUM RESIDUAL FOR EACH ITERATION (1 INDICATES THE FIRST INNER ITERATION):

    RESIDUAL       RESIDUAL       RESIDUAL       RESIDUAL       RESIDUAL    
   LAYER,ROW,COL  LAYER,ROW,COL  LAYER,ROW,COL  LAYER,ROW,COL  LAYER,ROW,COL
 ---------------------------------------------------------------------------
  1 -0.6552E-03  0 -0.2408E-03  0  0.4899E-04  0 -0.1766E-04  0 -0.3996E-05
   (  2, 17, 11)  (  2, 17, 11)  (  2, 20,  8)  (  2, 18, 10)  (  1, 13, 10)
  0 -0.1516E-05  1  0.3858E-03  0  0.3468E-04  0  0.6236E-05  0 -0.1443E-05
   (  1, 17, 12)  (  1, 39, 27)  (  1, 39, 27)  (  1, 39, 27)  (  2, 39, 27)
  1  0.1440E-02  0 -0.1307E-03  0 -0.1855E-04  0  0.4252E-05  1  0.1356E-03
   (  1, 41, 27)  (  2, 41, 27)  (  2, 41, 27)  (  1, 41, 27)  (  2, 41, 27)
  0  0.4554E-04  0  0.6244E-05  0  0.2189E-05  0  0.7064E-06  1 -0.6508E-06
   (  2, 40, 28)  (  2, 42, 26)  (  2, 43, 25)  (  2, 43, 25)  (  2, 39, 28)
  0  0.2287E-06  1 -0.1575E-06  0 -0.7798E-07  1  0.6325E-07  0  0.3055E-07
   (  2, 40, 27)  (  2,  5, 12)  (  2, 40, 27)  (  2, 50, 37)  (  2, 50, 37)
  1 -0.4591E-07  0 -0.2307E-07  1  0.3365E-07  0  0.1521E-07  1 -0.2327E-07
   (  2, 50, 37)  (  2, 50, 37)  (  2, 50, 37)  (  2, 50, 37)  (  2, 50, 37)



 OUTPUT CONTROL FOR STRESS PERIOD    2   TIME STEP   92
    SAVE HEAD FOR ALL LAYERS
    SAVE DRAWDOWN FOR ALL LAYERS
    SAVE BUDGET
    PRINT BUDGET
 UBDSV1 SAVING "         STORAGE" ON UNIT   9 AT TIME STEP 92, STRESS PERIOD   2
 UBDSV2 SAVING "   CONSTANT HEAD" ON UNIT   9 AT TIME STEP 92, STRESS PERIOD   2
 UBDSV1 SAVING "FLOW RIGHT FACE " ON UNIT   9 AT TIME STEP 92, STRESS PERIOD   2
 UBDSV1 SAVING "FLOW FRONT FACE " ON UNIT   9 AT TIME STEP 92, STRESS PERIOD   2
 UBDSV1 SAVING "FLOW LOWER FACE " ON UNIT   9 AT TIME STEP 92, STRESS PERIOD   2
 UBDSV4 SAVING "           WELLS" ON UNIT   9 AT TIME STEP 92, STRESS PERIOD   2
 UBDSV4 SAVING "   RIVER LEAKAGE" ON UNIT   9 AT TIME STEP 92, STRESS PERIOD   2
 UBDSV3 SAVING "              ET" ON UNIT   9 AT TIME STEP 92, STRESS PERIOD   2
 UBDSV4 SAVING " HEAD DEP BOUNDS" ON UNIT   9 AT TIME STEP 92, STRESS PERIOD   2
 UBDSV3 SAVING "        RECHARGE" ON UNIT   9 AT TIME STEP 92, STRESS PERIOD   2
 SOLVING FOR ZETA FOR LAYER     1 ZONE     2
     2 CALLS TO PCG ROUTINE FOR TIME STEP  92 IN STRESS PERIOD    2
     5 TOTAL ITERATIONS

 MAXIMUM HEAD CHANGE FOR EACH ITERATION (1 INDICATES THE FIRST INNER ITERATION):

    HEAD CHANGE    HEAD CHANGE    HEAD CHANGE    HEAD CHANGE    HEAD CHANGE 
   LAYER,ROW,COL  LAYER,ROW,COL  LAYER,ROW,COL  LAYER,ROW,COL  LAYER,ROW,COL
 ---------------------------------------------------------------------------
  1   32.16      0  0.1588      0  0.1585E-02  0  0.9045E-05  1 -0.1286E-05
   (  1, 20,  9)  (  1, 17,  6)  (  1, 16,  7)  (  1, 17,  6)  (  1, 20,  9)

 MAXIMUM RESIDUAL FOR EACH ITERATION (1 INDICATES THE FIRST INNER ITERATION):

    RESIDUAL       RESIDUAL       RESIDUAL       RESIDUAL       RESIDUAL    
   LAYER,ROW,COL  LAYER,ROW,COL  LAYER,ROW,COL  LAYER,ROW,COL  LAYER,ROW,COL
 ---------------------------------------------------------------------------
  1 -0.5586E-04  0 -0.5404E-06  0 -0.3005E-08  0 -0.2061E-10  1  0.2415E-11
   (  1, 17,  6)  (  1, 16,  7)  (  1, 17,  6)  (  1, 16,  7)  (  1, 19, 10)


 SOLVING FOR ZETA FOR LAYER     2 ZONE     2
     2 CALLS TO PCG ROUTINE FOR TIME STEP  92 IN STRESS PERIOD    2
     4 TOTAL ITERATIONS

 MAXIMUM HEAD CHANGE FOR EACH ITERATION (1 INDICATES THE FIRST INNER ITERATION):

    HEAD CHANGE    HEAD CHANGE    HEAD CHANGE    HEAD CHANGE    HEAD CHANGE 
   LAYER,ROW,COL  LAYER,ROW,COL  LAYER,ROW,COL  LAYER,ROW,COL  LAYER,ROW,COL
 ---------------------------------------------------------------------------
  1  -6.697      0 -0.6306E-01  0 -0.8341E-03  1  0.7198E-05
   (  1, 17, 12)  (  1, 25,  8)  (  1, 26,  7)  (  1, 29,  5)

 MAXIMUM RESIDUAL FOR EACH ITERATION (1 INDICATES THE FIRST INNER ITERATION):

    RESIDUAL       RESIDUAL       RESIDUAL       RESIDUAL       RESIDUAL    
   LAYER,ROW,COL  LAYER,ROW,COL  LAYER,ROW,COL  LAYER,ROW,COL  LAYER,ROW,COL
 ---------------------------------------------------------------------------
  1  0.2286E-04  0  0.3035E-06  0 -0.2998E-08  1 -0.7879E-10
   (  1, 25,  8)  (  1, 26,  7)  (  1, 29,  5)  (  1, 28,  6)


 UBUDSV SAVING "      ZETASRF  1" ON UNIT170 AT TIME STEP 92, STRESS PERIOD    2


                      VOLUMETRIC SWI ZONE BUDGET FOR ENTIRE MODEL
                     AT END OF TIME STEP   92 IN STRESS PERIOD   2
                                      ZONE     1
  -----------------------------------------------------------------------------------

        CUMULATIVE VOLUMES      L**3       RATES FOR THIS TIME STEP      L**3/T
        ------------------                 ------------------------

              IN:                                      IN:
              ---                                      ---
             BOUNDARIES =   810113792.0000            BOUNDARIES =           0.1827
          CONSTANT HEAD =           0.0000         CONSTANT HEAD =           0.0000
            ZONE CHANGE =   209382912.0000           ZONE CHANGE =       5.4782E-02
       ZONE CHG TIP/TOE =    12923070.0000      ZONE CHG TIP/TOE =       1.2360E-02
            ZONE MIXING =           0.0000           ZONE MIXING =           0.0000

               TOTAL IN =  1032419776.0000              TOTAL IN =           0.2499

             OUT:                                     OUT:
             ----                                     ----
             BOUNDARIES =   928619200.0000            BOUNDARIES =           0.2809
          CONSTANT HEAD =           0.0000         CONSTANT HEAD =           0.0000
            ZONE CHANGE =    33939892.0000           ZONE CHANGE =       1.5606E-02
       ZONE CHG TIP/TOE =    10232272.0000      ZONE CHG TIP/TOE =       9.3296E-03
            ZONE MIXING =     1257405.5000           ZONE MIXING =           0.0000

              TOTAL OUT =   974048768.0000             TOTAL OUT =           0.3059

               IN - OUT =    58371008.0000              IN - OUT =      -5.6008E-02

    PERCENT DISCREPANCY =           5.82     PERCENT DISCREPANCY =         -20.16



                      VOLUMETRIC SWI ZONE BUDGET FOR ENTIRE MODEL
                     AT END OF TIME STEP   92 IN STRESS PERIOD   2
                                      ZONE     2
  -----------------------------------------------------------------------------------

        CUMULATIVE VOLUMES      L**3       RATES FOR THIS TIME STEP      L**3/T
        ------------------                 ------------------------

              IN:                                      IN:
              ---                                      ---
             BOUNDARIES =   141356880.0000            BOUNDARIES =           0.1346
          CONSTANT HEAD =           0.0000         CONSTANT HEAD =           0.0000
            ZONE CHANGE =    28714670.0000           ZONE CHANGE =       1.1008E-02
       ZONE CHG TIP/TOE =    26602610.0000      ZONE CHG TIP/TOE =       6.6874E-02
            ZONE MIXING =     1257405.5000           ZONE MIXING =           0.0000

               TOTAL IN =   197931568.0000              TOTAL IN =           0.2125

             OUT:                                     OUT:
             ----                                     ----
             BOUNDARIES =   121839048.0000            BOUNDARIES =       6.9527E-02
          CONSTANT HEAD =           0.0000         CONSTANT HEAD =           0.0000
            ZONE CHANGE =    67512104.0000           ZONE CHANGE =       8.5030E-02
       ZONE CHG TIP/TOE =     8221118.0000      ZONE CHG TIP/TOE =       7.4149E-03
            ZONE MIXING =           0.0000           ZONE MIXING =           0.0000

              TOTAL OUT =   197572272.0000             TOTAL OUT =           0.1620

               IN - OUT =      359296.0000              IN - OUT =       5.0495E-02

    PERCENT DISCREPANCY =           0.18     PERCENT DISCREPANCY =          26.97


 HEAD WILL BE SAVED ON UNIT   37 AT END OF TIME STEP   92, STRESS PERIOD    2

 DRAWDOWN WILL BE SAVED ON UNIT   38 AT END OF TIME STEP   92, STRESS PERIOD    2
1
  VOLUMETRIC BUDGET FOR ENTIRE MODEL AT END OF TIME STEP   92, STRESS PERIOD   2
  ------------------------------------------------------------------------------

     CUMULATIVE VOLUMES      L**3       RATES FOR THIS TIME STEP      L**3/T
     ------------------                 ------------------------

           IN:                                      IN:
           ---                                      ---
             STORAGE =    93663832.0000               STORAGE =       3.3360E-02
       CONSTANT HEAD =           0.0000         CONSTANT HEAD =           0.0000
               WELLS =           0.0000                 WELLS =           0.0000
       RIVER LEAKAGE =   168262480.0000         RIVER LEAKAGE =       3.4000E-02
                  ET =           0.0000                    ET =           0.0000
     HEAD DEP BOUNDS =   152484992.0000       HEAD DEP BOUNDS =           0.1383
            RECHARGE =   685462592.0000              RECHARGE =           0.1646
          SWIADDTOCH =           0.0000            SWIADDTOCH =           0.0000

            TOTAL IN =  1099873920.0000              TOTAL IN =           0.3703

          OUT:                                     OUT:
          ----                                     ----
             STORAGE =      145076.2969               STORAGE =       2.0403E-04
       CONSTANT HEAD =           0.0000         CONSTANT HEAD =           0.0000
               WELLS =   554970496.0000                 WELLS =           0.3700
       RIVER LEAKAGE =    21630804.0000         RIVER LEAKAGE =           0.0000
                  ET =   166413648.0000                    ET =           0.0000
     HEAD DEP BOUNDS =   356726304.0000       HEAD DEP BOUNDS =       5.7887E-05
            RECHARGE =           0.0000              RECHARGE =           0.0000
          SWIADDTOCH =           0.0000            SWIADDTOCH =           0.0000

           TOTAL OUT =  1099886336.0000             TOTAL OUT =           0.3703

            IN - OUT =      -12416.0000              IN - OUT =           0.0000

 PERCENT DISCREPANCY =          -0.00     PERCENT DISCREPANCY =           0.00






         TIME SUMMARY AT END OF TIME STEP   92 IN STRESS PERIOD    2
                    SECONDS     MINUTES      HOURS       DAYS        YEARS
                    -----------------------------------------------------------
   TIME STEP LENGTH 1.57680E+07 2.62800E+05  4380.0      182.50     0.49966    
 STRESS PERIOD TIME 1.45066E+09 2.41776E+07 4.02960E+05  16790.      45.969    
         TOTAL TIME 4.60426E+09 7.67377E+07 1.27896E+06  53290.      145.90    
1
 
 SOLVING FOR HEAD 

 CELL CONVERSIONS FOR ITER.=  2  LAYER=  1  STEP= 93  PERIOD=   2   (ROW,COL)
    DRY( 22, 34)   
    12 CALLS TO PCG ROUTINE FOR TIME STEP  93 IN STRESS PERIOD    2
    29 TOTAL ITERATIONS

 MAXIMUM HEAD CHANGE FOR EACH ITERATION (1 INDICATES THE FIRST INNER ITERATION):

    HEAD CHANGE    HEAD CHANGE    HEAD CHANGE    HEAD CHANGE    HEAD CHANGE 
   LAYER,ROW,COL  LAYER,ROW,COL  LAYER,ROW,COL  LAYER,ROW,COL  LAYER,ROW,COL
 ---------------------------------------------------------------------------
  1 -0.2332      0 -0.7958E-01  0 -0.2283E-01  0 -0.5444E-02  0 -0.1451E-02
   (  2, 17, 12)  (  2, 21,  8)  (  2, 19,  9)  (  2, 16, 12)  (  2, 23, 13)
  0  0.4139E-03  1 -0.3302E-01  0  0.6927E-02  0  0.1924E-02  0  0.5567E-03
   (  1, 19, 10)  (  2, 22, 34)  (  2, 54, 33)  (  2, 54, 33)  (  2, 54, 33)
  1 -0.1319E-01  0 -0.3868E-03  1  0.6826E-02  0  0.1638E-03  1 -0.4345E-02
   (  2, 54, 33)  (  2, 54, 33)  (  2, 54, 33)  (  2, 54, 33)  (  2, 51, 38)
  0 -0.1068E-03  1  0.3407E-02  0  0.6836E-04  1 -0.2688E-02  0 -0.4291E-04
   (  2, 51, 38)  (  2, 51, 38)  (  2, 51, 38)  (  2, 51, 38)  (  2, 51, 38)
  1  0.2124E-02  0  0.2808E-04  1 -0.1681E-02  0 -0.1987E-04  1  0.1330E-02
   (  2, 51, 38)  (  2, 51, 38)  (  2, 51, 38)  (  2, 51, 38)  (  2, 51, 38)
  0  0.1481E-04  1 -0.1053E-02  0 -0.1141E-04  1  0.8323E-03
   (  2, 51, 38)  (  2, 51, 38)  (  2, 51, 38)  (  2, 51, 38)

 MAXIMUM RESIDUAL FOR EACH ITERATION (1 INDICATES THE FIRST INNER ITERATION):

    RESIDUAL       RESIDUAL       RESIDUAL       RESIDUAL       RESIDUAL    
   LAYER,ROW,COL  LAYER,ROW,COL  LAYER,ROW,COL  LAYER,ROW,COL  LAYER,ROW,COL
 ---------------------------------------------------------------------------
  1  0.5760E-03  0  0.1454E-03  0  0.4487E-04  0 -0.1284E-04  0 -0.4605E-05
   (  2, 18, 11)  (  2, 19, 10)  (  2, 19, 10)  (  1, 19, 10)  (  1, 19, 10)
  0  0.1395E-05  1  0.2650E-04  0  0.8086E-05  0  0.2111E-05  0 -0.4410E-06
   (  1, 18, 11)  (  2, 22, 34)  (  2, 21, 35)  (  2, 21, 35)  (  1, 23, 33)
  1 -0.3511E-06  0 -0.1946E-06  1  0.2286E-06  0  0.1210E-06  1 -0.1274E-06
   (  2, 52, 34)  (  2, 52, 34)  (  2, 52, 34)  (  2, 52, 34)  (  2, 52, 34)
  0 -0.6874E-07  1 -0.8996E-07  0 -0.4000E-07  1  0.7156E-07  0  0.3232E-07
   (  2, 52, 34)  (  2, 50, 37)  (  2, 50, 37)  (  2, 50, 37)  (  2, 50, 37)
  1 -0.5701E-07  0 -0.2575E-07  1  0.4520E-07  0  0.2071E-07  1 -0.3595E-07
   (  2, 50, 37)  (  2, 50, 37)  (  2, 50, 37)  (  2, 50, 37)  (  2, 50, 37)
  0 -0.1649E-07  1  0.2848E-07  0  0.1315E-07  1 -0.2258E-07
   (  2, 50, 37)  (  2, 50, 37)  (  2, 50, 37)  (  2, 50, 37)



 OUTPUT CONTROL FOR STRESS PERIOD    2   TIME STEP   93
    SAVE HEAD FOR ALL LAYERS
    SAVE DRAWDOWN FOR ALL LAYERS
    SAVE BUDGET
    PRINT BUDGET
 UBDSV1 SAVING "         STORAGE" ON UNIT   9 AT TIME STEP 93, STRESS PERIOD   2
 UBDSV2 SAVING "   CONSTANT HEAD" ON UNIT   9 AT TIME STEP 93, STRESS PERIOD   2
 UBDSV1 SAVING "FLOW RIGHT FACE " ON UNIT   9 AT TIME STEP 93, STRESS PERIOD   2
 UBDSV1 SAVING "FLOW FRONT FACE " ON UNIT   9 AT TIME STEP 93, STRESS PERIOD   2
 UBDSV1 SAVING "FLOW LOWER FACE " ON UNIT   9 AT TIME STEP 93, STRESS PERIOD   2
 UBDSV4 SAVING "           WELLS" ON UNIT   9 AT TIME STEP 93, STRESS PERIOD   2
 UBDSV4 SAVING "   RIVER LEAKAGE" ON UNIT   9 AT TIME STEP 93, STRESS PERIOD   2
 UBDSV3 SAVING "              ET" ON UNIT   9 AT TIME STEP 93, STRESS PERIOD   2
 UBDSV4 SAVING " HEAD DEP BOUNDS" ON UNIT   9 AT TIME STEP 93, STRESS PERIOD   2
 UBDSV3 SAVING "        RECHARGE" ON UNIT   9 AT TIME STEP 93, STRESS PERIOD   2
 SOLVING FOR ZETA FOR LAYER     1 ZONE     2
     2 CALLS TO PCG ROUTINE FOR TIME STEP  93 IN STRESS PERIOD    2
     4 TOTAL ITERATIONS

 MAXIMUM HEAD CHANGE FOR EACH ITERATION (1 INDICATES THE FIRST INNER ITERATION):

    HEAD CHANGE    HEAD CHANGE    HEAD CHANGE    HEAD CHANGE    HEAD CHANGE 
   LAYER,ROW,COL  LAYER,ROW,COL  LAYER,ROW,COL  LAYER,ROW,COL  LAYER,ROW,COL
 ---------------------------------------------------------------------------
  1   30.86      0  0.4805E-01  0  0.2971E-03  1  0.1811E-05
   (  1, 20,  8)  (  1, 13, 10)  (  1, 13, 10)  (  1, 14,  9)

 MAXIMUM RESIDUAL FOR EACH ITERATION (1 INDICATES THE FIRST INNER ITERATION):

    RESIDUAL       RESIDUAL       RESIDUAL       RESIDUAL       RESIDUAL    
   LAYER,ROW,COL  LAYER,ROW,COL  LAYER,ROW,COL  LAYER,ROW,COL  LAYER,ROW,COL
 ---------------------------------------------------------------------------
  1 -0.1470E-04  0 -0.8982E-07  0 -0.4436E-09  1  0.5373E-11
   (  1, 13, 10)  (  1, 13, 10)  (  1, 14,  9)  (  1, 23,  5)


 SOLVING FOR ZETA FOR LAYER     2 ZONE     2
     2 CALLS TO PCG ROUTINE FOR TIME STEP  93 IN STRESS PERIOD    2
     4 TOTAL ITERATIONS

 MAXIMUM HEAD CHANGE FOR EACH ITERATION (1 INDICATES THE FIRST INNER ITERATION):

    HEAD CHANGE    HEAD CHANGE    HEAD CHANGE    HEAD CHANGE    HEAD CHANGE 
   LAYER,ROW,COL  LAYER,ROW,COL  LAYER,ROW,COL  LAYER,ROW,COL  LAYER,ROW,COL
 ---------------------------------------------------------------------------
  1   7.240      0  0.1022      0  0.5646E-03  1  0.9554E-05
   (  1, 17, 11)  (  1, 16, 12)  (  1, 28,  6)  (  1, 27,  7)

 MAXIMUM RESIDUAL FOR EACH ITERATION (1 INDICATES THE FIRST INNER ITERATION):

    RESIDUAL       RESIDUAL       RESIDUAL       RESIDUAL       RESIDUAL    
   LAYER,ROW,COL  LAYER,ROW,COL  LAYER,ROW,COL  LAYER,ROW,COL  LAYER,ROW,COL
 ---------------------------------------------------------------------------
  1 -0.2853E-04  0 -0.2086E-06  0 -0.3504E-08  1 -0.8995E-10
   (  1, 16, 12)  (  1, 28,  6)  (  1, 29,  5)  (  1, 28,  6)


 UBUDSV SAVING "      ZETASRF  1" ON UNIT170 AT TIME STEP 93, STRESS PERIOD    2


                      VOLUMETRIC SWI ZONE BUDGET FOR ENTIRE MODEL
                     AT END OF TIME STEP   93 IN STRESS PERIOD   2
                                      ZONE     1
  -----------------------------------------------------------------------------------

        CUMULATIVE VOLUMES      L**3       RATES FOR THIS TIME STEP      L**3/T
        ------------------                 ------------------------

              IN:                                      IN:
              ---                                      ---
             BOUNDARIES =   812990592.0000            BOUNDARIES =           0.1824
          CONSTANT HEAD =           0.0000         CONSTANT HEAD =           0.0000
            ZONE CHANGE =   210166912.0000           ZONE CHANGE =       4.9721E-02
       ZONE CHG TIP/TOE =    12980793.0000      ZONE CHG TIP/TOE =       3.6608E-03
            ZONE MIXING =           0.0000           ZONE MIXING =           0.0000

               TOTAL IN =  1036138304.0000              TOTAL IN =           0.2358

             OUT:                                     OUT:
             ----                                     ----
             BOUNDARIES =   932208384.0000            BOUNDARIES =           0.2276
          CONSTANT HEAD =           0.0000         CONSTANT HEAD =           0.0000
            ZONE CHANGE =    34142068.0000           ZONE CHANGE =       1.2822E-02
       ZONE CHG TIP/TOE =    10262613.0000      ZONE CHG TIP/TOE =       1.9242E-03
            ZONE MIXING =     1340721.6250           ZONE MIXING =       5.2839E-03

              TOTAL OUT =   977953792.0000             TOTAL OUT =           0.2477

               IN - OUT =    58184512.0000              IN - OUT =      -1.1828E-02

    PERCENT DISCREPANCY =           5.78     PERCENT DISCREPANCY =          -4.89



                      VOLUMETRIC SWI ZONE BUDGET FOR ENTIRE MODEL
                     AT END OF TIME STEP   93 IN STRESS PERIOD   2
                                      ZONE     2
  -----------------------------------------------------------------------------------

        CUMULATIVE VOLUMES      L**3       RATES FOR THIS TIME STEP      L**3/T
        ------------------                 ------------------------

              IN:                                      IN:
              ---                                      ---
             BOUNDARIES =   143486608.0000            BOUNDARIES =           0.1351
          CONSTANT HEAD =           0.0000         CONSTANT HEAD =           0.0000
            ZONE CHANGE =    28890436.0000           ZONE CHANGE =       1.1147E-02
       ZONE CHG TIP/TOE =    26801472.0000      ZONE CHG TIP/TOE =       1.2612E-02
            ZONE MIXING =     1340721.6250           ZONE MIXING =       5.2839E-03

               TOTAL IN =   200519232.0000              TOTAL IN =           0.1641

             OUT:                                     OUT:
             ----                                     ----
             BOUNDARIES =   123775584.0000            BOUNDARIES =           0.1228
          CONSTANT HEAD =           0.0000         CONSTANT HEAD =           0.0000
            ZONE CHANGE =    68039064.0000           ZONE CHANGE =       3.3420E-02
       ZONE CHG TIP/TOE =     8245118.0000      ZONE CHG TIP/TOE =       1.5221E-03
            ZONE MIXING =           0.0000           ZONE MIXING =           0.0000

              TOTAL OUT =   200059776.0000             TOTAL OUT =           0.1578

               IN - OUT =      459456.0000              IN - OUT =       6.3532E-03

    PERCENT DISCREPANCY =           0.23     PERCENT DISCREPANCY =           3.95


 HEAD WILL BE SAVED ON UNIT   37 AT END OF TIME STEP   93, STRESS PERIOD    2

 DRAWDOWN WILL BE SAVED ON UNIT   38 AT END OF TIME STEP   93, STRESS PERIOD    2
1
  VOLUMETRIC BUDGET FOR ENTIRE MODEL AT END OF TIME STEP   93, STRESS PERIOD   2
  ------------------------------------------------------------------------------

     CUMULATIVE VOLUMES      L**3       RATES FOR THIS TIME STEP      L**3/T
     ------------------                 ------------------------

           IN:                                      IN:
           ---                                      ---
             STORAGE =    94187136.0000               STORAGE =       3.3188E-02
       CONSTANT HEAD =           0.0000         CONSTANT HEAD =           0.0000
               WELLS =           0.0000                 WELLS =           0.0000
       RIVER LEAKAGE =   168798592.0000         RIVER LEAKAGE =       3.4000E-02
                  ET =           0.0000                    ET =           0.0000
     HEAD DEP BOUNDS =   154672432.0000       HEAD DEP BOUNDS =           0.1387
            RECHARGE =   688054592.0000              RECHARGE =           0.1644
          SWIADDTOCH =           0.0000            SWIADDTOCH =           0.0000

            TOTAL IN =  1105712768.0000              TOTAL IN =           0.3703

          OUT:                                     OUT:
          ----                                     ----
             STORAGE =      149187.1406               STORAGE =       2.6071E-04
       CONSTANT HEAD =           0.0000         CONSTANT HEAD =           0.0000
               WELLS =   560804672.0000                 WELLS =           0.3700
       RIVER LEAKAGE =    21630804.0000         RIVER LEAKAGE =           0.0000
                  ET =   166413648.0000                    ET =           0.0000
     HEAD DEP BOUNDS =   356726880.0000       HEAD DEP BOUNDS =       3.7189E-05
            RECHARGE =           0.0000              RECHARGE =           0.0000
          SWIADDTOCH =           0.0000            SWIADDTOCH =           0.0000

           TOTAL OUT =  1105725184.0000             TOTAL OUT =           0.3703

            IN - OUT =      -12416.0000              IN - OUT =           0.0000

 PERCENT DISCREPANCY =          -0.00     PERCENT DISCREPANCY =           0.00






         TIME SUMMARY AT END OF TIME STEP   93 IN STRESS PERIOD    2
                    SECONDS     MINUTES      HOURS       DAYS        YEARS
                    -----------------------------------------------------------
   TIME STEP LENGTH 1.57680E+07 2.62800E+05  4380.0      182.50     0.49966    
 STRESS PERIOD TIME 1.46643E+09 2.44404E+07 4.07340E+05  16973.      46.468    
         TOTAL TIME 4.62003E+09 7.70005E+07 1.28334E+06  53473.      146.40    
1
 
 SOLVING FOR HEAD 

 CELL CONVERSIONS FOR ITER.=  2  LAYER=  1  STEP= 94  PERIOD=   2   (ROW,COL)
    DRY( 16, 36)   
    15 CALLS TO PCG ROUTINE FOR TIME STEP  94 IN STRESS PERIOD    2
    35 TOTAL ITERATIONS

 MAXIMUM HEAD CHANGE FOR EACH ITERATION (1 INDICATES THE FIRST INNER ITERATION):

    HEAD CHANGE    HEAD CHANGE    HEAD CHANGE    HEAD CHANGE    HEAD CHANGE 
   LAYER,ROW,COL  LAYER,ROW,COL  LAYER,ROW,COL  LAYER,ROW,COL  LAYER,ROW,COL
 ---------------------------------------------------------------------------
  1 -0.2290      0 -0.7909E-01  0 -0.1969E-01  0  0.3851E-02  0  0.1301E-02
   (  2, 18, 12)  (  2, 18, 10)  (  1, 17, 12)  (  1, 17, 13)  (  1, 17, 13)
  0 -0.4736E-03  1 -0.4504E-01  0 -0.5898E-02  0  0.1080E-02  0  0.3564E-03
   (  1, 19, 10)  (  2, 16, 36)  (  2, 17, 34)  (  2, 54, 33)  (  2, 54, 33)
  1 -0.1323E-01  0 -0.4049E-03  1  0.7925E-02  0  0.2051E-03  1 -0.4757E-02
   (  2, 54, 33)  (  2, 54, 33)  (  2, 54, 33)  (  2, 54, 33)  (  2, 54, 33)
  0 -0.1137E-03  1  0.3343E-02  0  0.7776E-04  1 -0.2875E-02  0 -0.5281E-04
   (  2, 54, 33)  (  2, 51, 38)  (  2, 51, 38)  (  2, 51, 38)  (  2, 51, 38)
  1  0.2480E-02  0  0.3718E-04  1 -0.2147E-02  0 -0.2621E-04  1  0.1860E-02
   (  2, 51, 38)  (  2, 51, 38)  (  2, 51, 38)  (  2, 51, 38)  (  2, 51, 38)
  0  0.2015E-04  1 -0.1614E-02  0 -0.1596E-04  1  0.1400E-02  0  0.1364E-04
   (  2, 51, 38)  (  2, 51, 38)  (  2, 51, 38)  (  2, 51, 38)  (  2, 50, 37)
  1 -0.1214E-02  0 -0.1199E-04  1  0.1054E-02  0  0.1031E-04  1 -0.9146E-03
   (  2, 51, 38)  (  2, 50, 37)  (  2, 51, 38)  (  2, 50, 37)  (  2, 51, 38)

 MAXIMUM RESIDUAL FOR EACH ITERATION (1 INDICATES THE FIRST INNER ITERATION):

    RESIDUAL       RESIDUAL       RESIDUAL       RESIDUAL       RESIDUAL    
   LAYER,ROW,COL  LAYER,ROW,COL  LAYER,ROW,COL  LAYER,ROW,COL  LAYER,ROW,COL
 ---------------------------------------------------------------------------
  1  0.5574E-03  0 -0.1512E-03  0  0.3942E-04  0  0.1377E-04  0  0.5398E-05
   (  2, 18, 10)  (  1, 18, 12)  (  2, 18, 11)  (  1, 19, 10)  (  1, 19, 10)
  0 -0.1646E-05  1  0.2443E-04  0  0.7541E-05  0  0.1974E-05  0  0.4691E-06
   (  1, 18, 11)  (  2, 17, 35)  (  2, 17, 35)  (  2, 17, 35)  (  2, 18, 34)
  1 -0.4047E-06  0 -0.1974E-06  1  0.2558E-06  0  0.1479E-06  1 -0.1656E-06
   (  2, 18, 11)  (  2, 52, 34)  (  2, 52, 34)  (  2, 52, 34)  (  2, 52, 34)
  0 -0.9289E-07  1 -0.1033E-06  0  0.5857E-07  1  0.7383E-07  0 -0.3507E-07
   (  2, 52, 34)  (  2,  5, 11)  (  2, 52, 34)  (  2, 50, 37)  (  2, 52, 34)
  1 -0.6327E-07  0 -0.3021E-07  1  0.5488E-07  0  0.2520E-07  1 -0.4702E-07
   (  2, 50, 37)  (  2, 50, 37)  (  2, 50, 37)  (  2, 50, 37)  (  2, 50, 37)
  0 -0.2179E-07  1  0.4073E-07  0  0.1842E-07  1 -0.3505E-07  0 -0.1599E-07
   (  2, 50, 37)  (  2, 50, 37)  (  2, 50, 37)  (  2, 50, 37)  (  2, 50, 37)
  1  0.3039E-07  0  0.1369E-07  1 -0.2626E-07  0 -0.1191E-07  1  0.2280E-07
   (  2, 50, 37)  (  2, 50, 37)  (  2, 50, 37)  (  2, 50, 37)  (  2, 50, 37)



 OUTPUT CONTROL FOR STRESS PERIOD    2   TIME STEP   94
    SAVE HEAD FOR ALL LAYERS
    SAVE DRAWDOWN FOR ALL LAYERS
    SAVE BUDGET
    PRINT BUDGET
 UBDSV1 SAVING "         STORAGE" ON UNIT   9 AT TIME STEP 94, STRESS PERIOD   2
 UBDSV2 SAVING "   CONSTANT HEAD" ON UNIT   9 AT TIME STEP 94, STRESS PERIOD   2
 UBDSV1 SAVING "FLOW RIGHT FACE " ON UNIT   9 AT TIME STEP 94, STRESS PERIOD   2
 UBDSV1 SAVING "FLOW FRONT FACE " ON UNIT   9 AT TIME STEP 94, STRESS PERIOD   2
 UBDSV1 SAVING "FLOW LOWER FACE " ON UNIT   9 AT TIME STEP 94, STRESS PERIOD   2
 UBDSV4 SAVING "           WELLS" ON UNIT   9 AT TIME STEP 94, STRESS PERIOD   2
 UBDSV4 SAVING "   RIVER LEAKAGE" ON UNIT   9 AT TIME STEP 94, STRESS PERIOD   2
 UBDSV3 SAVING "              ET" ON UNIT   9 AT TIME STEP 94, STRESS PERIOD   2
 UBDSV4 SAVING " HEAD DEP BOUNDS" ON UNIT   9 AT TIME STEP 94, STRESS PERIOD   2
 UBDSV3 SAVING "        RECHARGE" ON UNIT   9 AT TIME STEP 94, STRESS PERIOD   2
 SOLVING FOR ZETA FOR LAYER     1 ZONE     2
     2 CALLS TO PCG ROUTINE FOR TIME STEP  94 IN STRESS PERIOD    2
     4 TOTAL ITERATIONS

 MAXIMUM HEAD CHANGE FOR EACH ITERATION (1 INDICATES THE FIRST INNER ITERATION):

    HEAD CHANGE    HEAD CHANGE    HEAD CHANGE    HEAD CHANGE    HEAD CHANGE 
   LAYER,ROW,COL  LAYER,ROW,COL  LAYER,ROW,COL  LAYER,ROW,COL  LAYER,ROW,COL
 ---------------------------------------------------------------------------
  1   24.81      0 -0.6630E-01  0 -0.4563E-03  1 -0.1817E-05
   (  1, 17, 11)  (  1, 22,  7)  (  1, 21,  8)  (  1, 23,  7)

 MAXIMUM RESIDUAL FOR EACH ITERATION (1 INDICATES THE FIRST INNER ITERATION):

    RESIDUAL       RESIDUAL       RESIDUAL       RESIDUAL       RESIDUAL    
   LAYER,ROW,COL  LAYER,ROW,COL  LAYER,ROW,COL  LAYER,ROW,COL  LAYER,ROW,COL
 ---------------------------------------------------------------------------
  1  0.2311E-04  0  0.1275E-06  0  0.6495E-09  1  0.5374E-11
   (  1, 22,  7)  (  1, 21,  8)  (  1, 23,  7)  (  1, 22,  8)


 SOLVING FOR ZETA FOR LAYER     2 ZONE     2
     2 CALLS TO PCG ROUTINE FOR TIME STEP  94 IN STRESS PERIOD    2
     4 TOTAL ITERATIONS

 MAXIMUM HEAD CHANGE FOR EACH ITERATION (1 INDICATES THE FIRST INNER ITERATION):

    HEAD CHANGE    HEAD CHANGE    HEAD CHANGE    HEAD CHANGE    HEAD CHANGE 
   LAYER,ROW,COL  LAYER,ROW,COL  LAYER,ROW,COL  LAYER,ROW,COL  LAYER,ROW,COL
 ---------------------------------------------------------------------------
  1  -6.024      0  0.2860E-01  0  0.5443E-03  1  0.7429E-05
   (  1, 17, 12)  (  1, 10, 10)  (  1, 28,  6)  (  1, 29,  5)

 MAXIMUM RESIDUAL FOR EACH ITERATION (1 INDICATES THE FIRST INNER ITERATION):

    RESIDUAL       RESIDUAL       RESIDUAL       RESIDUAL       RESIDUAL    
   LAYER,ROW,COL  LAYER,ROW,COL  LAYER,ROW,COL  LAYER,ROW,COL  LAYER,ROW,COL
 ---------------------------------------------------------------------------
  1 -0.1053E-04  0 -0.1964E-06  0 -0.2999E-08  1 -0.7656E-10
   (  1, 30,  5)  (  1, 28,  6)  (  1, 29,  5)  (  1, 28,  6)


 UBUDSV SAVING "      ZETASRF  1" ON UNIT170 AT TIME STEP 94, STRESS PERIOD    2


                      VOLUMETRIC SWI ZONE BUDGET FOR ENTIRE MODEL
                     AT END OF TIME STEP   94 IN STRESS PERIOD   2
                                      ZONE     1
  -----------------------------------------------------------------------------------

        CUMULATIVE VOLUMES      L**3       RATES FOR THIS TIME STEP      L**3/T
        ------------------                 ------------------------

              IN:                                      IN:
              ---                                      ---
             BOUNDARIES =   815866176.0000            BOUNDARIES =           0.1824
          CONSTANT HEAD =           0.0000         CONSTANT HEAD =           0.0000
            ZONE CHANGE =   210841440.0000           ZONE CHANGE =       4.2779E-02
       ZONE CHG TIP/TOE =    13162226.0000      ZONE CHG TIP/TOE =       1.1506E-02
            ZONE MIXING =           0.0000           ZONE MIXING =           0.0000

               TOTAL IN =  1039869824.0000              TOTAL IN =           0.2367

             OUT:                                     OUT:
             ----                                     ----
             BOUNDARIES =   935721472.0000            BOUNDARIES =           0.2228
          CONSTANT HEAD =           0.0000         CONSTANT HEAD =           0.0000
            ZONE CHANGE =    34362816.0000           ZONE CHANGE =       1.4000E-02
       ZONE CHG TIP/TOE =    10367088.0000      ZONE CHG TIP/TOE =       6.6258E-03
            ZONE MIXING =     1394581.0000           ZONE MIXING =       3.4157E-03

              TOTAL OUT =   981845952.0000             TOTAL OUT =           0.2468

               IN - OUT =    58023872.0000              IN - OUT =      -1.0187E-02

    PERCENT DISCREPANCY =           5.74     PERCENT DISCREPANCY =          -4.21



                      VOLUMETRIC SWI ZONE BUDGET FOR ENTIRE MODEL
                     AT END OF TIME STEP   94 IN STRESS PERIOD   2
                                      ZONE     2
  -----------------------------------------------------------------------------------

        CUMULATIVE VOLUMES      L**3       RATES FOR THIS TIME STEP      L**3/T
        ------------------                 ------------------------

              IN:                                      IN:
              ---                                      ---
             BOUNDARIES =   145618672.0000            BOUNDARIES =           0.1352
          CONSTANT HEAD =           0.0000         CONSTANT HEAD =           0.0000
            ZONE CHANGE =    29078794.0000           ZONE CHANGE =       1.1946E-02
       ZONE CHG TIP/TOE =    27090484.0000      ZONE CHG TIP/TOE =       1.8329E-02
            ZONE MIXING =     1394581.0000           ZONE MIXING =       3.4157E-03

               TOTAL IN =   203182528.0000              TOTAL IN =           0.1689

             OUT:                                     OUT:
             ----                                     ----
             BOUNDARIES =   125787960.0000            BOUNDARIES =           0.1276
          CONSTANT HEAD =           0.0000         CONSTANT HEAD =           0.0000
            ZONE CHANGE =    68468208.0000           ZONE CHANGE =       2.7216E-02
       ZONE CHG TIP/TOE =     8392360.0000      ZONE CHG TIP/TOE =       9.3381E-03
            ZONE MIXING =           0.0000           ZONE MIXING =           0.0000

              TOTAL OUT =   202648528.0000             TOTAL OUT =           0.1642

               IN - OUT =      534000.0000              IN - OUT =       4.7266E-03

    PERCENT DISCREPANCY =           0.26     PERCENT DISCREPANCY =           2.84


 HEAD WILL BE SAVED ON UNIT   37 AT END OF TIME STEP   94, STRESS PERIOD    2

 DRAWDOWN WILL BE SAVED ON UNIT   38 AT END OF TIME STEP   94, STRESS PERIOD    2
1
  VOLUMETRIC BUDGET FOR ENTIRE MODEL AT END OF TIME STEP   94, STRESS PERIOD   2
  ------------------------------------------------------------------------------

     CUMULATIVE VOLUMES      L**3       RATES FOR THIS TIME STEP      L**3/T
     ------------------                 ------------------------

           IN:                                      IN:
           ---                                      ---
             STORAGE =    94707424.0000               STORAGE =       3.2997E-02
       CONSTANT HEAD =           0.0000         CONSTANT HEAD =           0.0000
               WELLS =           0.0000                 WELLS =           0.0000
       RIVER LEAKAGE =   169334704.0000         RIVER LEAKAGE =       3.4000E-02
                  ET =           0.0000                    ET =           0.0000
     HEAD DEP BOUNDS =   156863984.0000       HEAD DEP BOUNDS =           0.1390
            RECHARGE =   690643584.0000              RECHARGE =           0.1642
          SWIADDTOCH =           0.0000            SWIADDTOCH =           0.0000

            TOTAL IN =  1111549696.0000              TOTAL IN =           0.3702

          OUT:                                     OUT:
          ----                                     ----
             STORAGE =      151656.1250               STORAGE =       1.5658E-04
       CONSTANT HEAD =           0.0000         CONSTANT HEAD =           0.0000
               WELLS =   566638848.0000                 WELLS =           0.3700
       RIVER LEAKAGE =    21630804.0000         RIVER LEAKAGE =           0.0000
                  ET =   166413648.0000                    ET =           0.0000
     HEAD DEP BOUNDS =   356727200.0000       HEAD DEP BOUNDS =       2.0650E-05
            RECHARGE =           0.0000              RECHARGE =           0.0000
          SWIADDTOCH =           0.0000            SWIADDTOCH =           0.0000

           TOTAL OUT =  1111562112.0000             TOTAL OUT =           0.3702

            IN - OUT =      -12416.0000              IN - OUT =      -2.9802E-08

 PERCENT DISCREPANCY =          -0.00     PERCENT DISCREPANCY =          -0.00






         TIME SUMMARY AT END OF TIME STEP   94 IN STRESS PERIOD    2
                    SECONDS     MINUTES      HOURS       DAYS        YEARS
                    -----------------------------------------------------------
   TIME STEP LENGTH 1.57680E+07 2.62800E+05  4380.0      182.50     0.49966    
 STRESS PERIOD TIME 1.48219E+09 2.47032E+07 4.11720E+05  17155.      46.968    
         TOTAL TIME 4.63580E+09 7.72633E+07 1.28772E+06  53655.      146.90    
1
 
 SOLVING FOR HEAD 

 CELL CONVERSIONS FOR ITER.=  2  LAYER=  1  STEP= 95  PERIOD=   2   (ROW,COL)
    DRY(  1, 25)   DRY( 34, 27)   

 CELL CONVERSIONS FOR ITER.=  5  LAYER=  1  STEP= 95  PERIOD=   2   (ROW,COL)
    DRY( 15, 34)   
    23 CALLS TO PCG ROUTINE FOR TIME STEP  95 IN STRESS PERIOD    2
    53 TOTAL ITERATIONS

 MAXIMUM HEAD CHANGE FOR EACH ITERATION (1 INDICATES THE FIRST INNER ITERATION):

    HEAD CHANGE    HEAD CHANGE    HEAD CHANGE    HEAD CHANGE    HEAD CHANGE 
   LAYER,ROW,COL  LAYER,ROW,COL  LAYER,ROW,COL  LAYER,ROW,COL  LAYER,ROW,COL
 ---------------------------------------------------------------------------
  1 -0.2554      0 -0.7827E-01  0  0.2322E-01  0 -0.5965E-02  0  0.2365E-02
   (  1, 14, 10)  (  2,  6, 11)  (  2,  5, 10)  (  2,  5, 10)  (  1, 16, 11)
  0  0.4380E-03  1 -0.7800E-01  0  0.1722E-01  0  0.2957E-02  0  0.6172E-03
   (  2,  5, 16)  (  2,  1, 25)  (  2,  1, 25)  (  2,  1, 25)  (  2,  1, 25)
  1 -0.1288E-01  0  0.1796E-03  1  0.9127E-02  0  0.1348E-03  1 -0.4828E-01
   (  2, 54, 33)  (  2, 18, 11)  (  2, 54, 33)  (  2, 53, 33)  (  2, 15, 34)
  0 -0.6636E-02  0 -0.1490E-02  0 -0.1480E-03  1  0.4143E-02  0  0.2928E-03
   (  2, 14, 35)  (  2, 14, 35)  (  2, 22, 28)  (  2, 54, 33)  (  2, 54, 33)
  1 -0.2936E-02  0 -0.9151E-04  1  0.2441E-02  0  0.4564E-04  1 -0.2281E-02
   (  2, 54, 33)  (  2, 54, 33)  (  2, 51, 38)  (  2, 51, 38)  (  2, 51, 38)
  0 -0.3577E-04  1  0.2139E-02  0  0.2643E-04  1 -0.2008E-02  0 -0.2186E-04
   (  2, 51, 38)  (  2, 51, 38)  (  2, 51, 38)  (  2, 51, 38)  (  2, 51, 38)
  1  0.1887E-02  0  0.1821E-04  1 -0.1776E-02  0 -0.1633E-04  1  0.1671E-02
   (  2, 51, 38)  (  2, 50, 37)  (  2, 51, 38)  (  2, 50, 37)  (  2, 51, 38)
  0  0.1609E-04  1 -0.1574E-02  0 -0.1472E-04  1  0.1482E-02  0  0.1420E-04
   (  2, 50, 37)  (  2, 51, 38)  (  2, 50, 37)  (  2, 51, 38)  (  2, 50, 37)
  1 -0.1395E-02  0 -0.1315E-04  1  0.1313E-02  0  0.1253E-04  1 -0.1236E-02
   (  2, 51, 38)  (  2, 50, 37)  (  2, 51, 38)  (  2, 50, 37)  (  2, 51, 38)
  0 -0.1170E-04  1  0.1164E-02  0  0.1109E-04  1 -0.1096E-02  0 -0.1039E-04
   (  2, 50, 37)  (  2, 51, 38)  (  2, 50, 37)  (  2, 51, 38)  (  2, 50, 37)
  1  0.1032E-02  0  0.9818E-05  1 -0.9713E-03
   (  2, 51, 38)  (  2, 50, 37)  (  2, 51, 38)

 MAXIMUM RESIDUAL FOR EACH ITERATION (1 INDICATES THE FIRST INNER ITERATION):

    RESIDUAL       RESIDUAL       RESIDUAL       RESIDUAL       RESIDUAL    
   LAYER,ROW,COL  LAYER,ROW,COL  LAYER,ROW,COL  LAYER,ROW,COL  LAYER,ROW,COL
 ---------------------------------------------------------------------------
  1 -0.5587E-03  0 -0.1887E-03  0 -0.5463E-04  0 -0.2407E-04  0 -0.6460E-05
   (  1, 17, 12)  (  1, 17, 12)  (  1, 16, 11)  (  1, 16, 11)  (  1, 16, 11)
  0  0.1955E-05  1  0.4870E-02  0  0.5248E-03  0  0.1012E-03  0  0.2355E-04
   (  2, 16, 11)  (  1, 15, 34)  (  1, 15, 34)  (  1, 15, 34)  (  1, 15, 34)
  1  0.4259E-05  0  0.9515E-06  1 -0.1365E-04  0 -0.4351E-05  1  0.2646E-04
   (  1, 15, 34)  (  1, 15, 34)  (  2, 15, 34)  (  2, 15, 34)  (  2, 16, 33)
  0  0.7134E-05  0  0.8602E-06  0  0.4686E-06  1 -0.3492E-06  0 -0.1313E-06
   (  2, 16, 33)  (  2, 17, 32)  (  2, 17, 32)  (  2, 15, 31)  (  2, 15, 31)
  1  0.1377E-06  0 -0.5691E-07  1  0.6998E-07  0  0.3714E-07  1  0.5859E-07
   (  2,  5, 11)  (  2, 52, 34)  (  2, 52, 34)  (  2, 52, 34)  (  2,  5, 11)
  0 -0.2747E-07  1 -0.5137E-07  0 -0.2243E-07  1  0.4705E-07  0  0.2201E-07
   (  2, 52, 34)  (  2, 50, 37)  (  2, 50, 37)  (  2, 50, 37)  (  2, 50, 37)
  1 -0.4475E-07  0 -0.1951E-07  1  0.4141E-07  0  0.1883E-07  1 -0.3923E-07
   (  2, 50, 37)  (  2, 50, 37)  (  2, 50, 37)  (  2, 50, 37)  (  2, 50, 37)
  0 -0.1713E-07  1  0.3658E-07  0  0.1638E-07  1 -0.3457E-07  0 -0.1515E-07
   (  2, 50, 37)  (  2, 50, 37)  (  2, 50, 37)  (  2, 50, 37)  (  2, 50, 37)
  1  0.3238E-07  0  0.1439E-07  1 -0.3055E-07  0 -0.1342E-07  1  0.2868E-07
   (  2, 50, 37)  (  2, 50, 37)  (  2, 50, 37)  (  2, 50, 37)  (  2, 50, 37)
  0  0.1270E-07  1 -0.2703E-07  0 -0.1190E-07  1  0.2542E-07  0  0.1123E-07
   (  2, 50, 37)  (  2, 50, 37)  (  2, 50, 37)  (  2, 50, 37)  (  2, 50, 37)
  1 -0.2395E-07  0 -0.1055E-07  1  0.2253E-07
   (  2, 50, 37)  (  2, 50, 37)  (  2, 50, 37)



 OUTPUT CONTROL FOR STRESS PERIOD    2   TIME STEP   95
    SAVE HEAD FOR ALL LAYERS
    SAVE DRAWDOWN FOR ALL LAYERS
    SAVE BUDGET
    PRINT BUDGET
 UBDSV1 SAVING "         STORAGE" ON UNIT   9 AT TIME STEP 95, STRESS PERIOD   2
 UBDSV2 SAVING "   CONSTANT HEAD" ON UNIT   9 AT TIME STEP 95, STRESS PERIOD   2
 UBDSV1 SAVING "FLOW RIGHT FACE " ON UNIT   9 AT TIME STEP 95, STRESS PERIOD   2
 UBDSV1 SAVING "FLOW FRONT FACE " ON UNIT   9 AT TIME STEP 95, STRESS PERIOD   2
 UBDSV1 SAVING "FLOW LOWER FACE " ON UNIT   9 AT TIME STEP 95, STRESS PERIOD   2
 UBDSV4 SAVING "           WELLS" ON UNIT   9 AT TIME STEP 95, STRESS PERIOD   2
 UBDSV4 SAVING "   RIVER LEAKAGE" ON UNIT   9 AT TIME STEP 95, STRESS PERIOD   2
 UBDSV3 SAVING "              ET" ON UNIT   9 AT TIME STEP 95, STRESS PERIOD   2
 UBDSV4 SAVING " HEAD DEP BOUNDS" ON UNIT   9 AT TIME STEP 95, STRESS PERIOD   2
 UBDSV3 SAVING "        RECHARGE" ON UNIT   9 AT TIME STEP 95, STRESS PERIOD   2
 SOLVING FOR ZETA FOR LAYER     1 ZONE     2
     2 CALLS TO PCG ROUTINE FOR TIME STEP  95 IN STRESS PERIOD    2
     4 TOTAL ITERATIONS

 MAXIMUM HEAD CHANGE FOR EACH ITERATION (1 INDICATES THE FIRST INNER ITERATION):

    HEAD CHANGE    HEAD CHANGE    HEAD CHANGE    HEAD CHANGE    HEAD CHANGE 
   LAYER,ROW,COL  LAYER,ROW,COL  LAYER,ROW,COL  LAYER,ROW,COL  LAYER,ROW,COL
 ---------------------------------------------------------------------------
  1   33.85      0  0.1278      0  0.9031E-03  1  0.2174E-05
   (  1, 18, 10)  (  1, 15, 10)  (  1, 16,  9)  (  1, 15, 10)

 MAXIMUM RESIDUAL FOR EACH ITERATION (1 INDICATES THE FIRST INNER ITERATION):

    RESIDUAL       RESIDUAL       RESIDUAL       RESIDUAL       RESIDUAL    
   LAYER,ROW,COL  LAYER,ROW,COL  LAYER,ROW,COL  LAYER,ROW,COL  LAYER,ROW,COL
 ---------------------------------------------------------------------------
  1 -0.4038E-04  0 -0.2795E-06  0 -0.6698E-09  1 -0.5744E-11
   (  1, 15, 10)  (  1, 16,  9)  (  1, 15, 10)  (  1, 16,  9)


 SOLVING FOR ZETA FOR LAYER     2 ZONE     2
     2 CALLS TO PCG ROUTINE FOR TIME STEP  95 IN STRESS PERIOD    2
     4 TOTAL ITERATIONS

 MAXIMUM HEAD CHANGE FOR EACH ITERATION (1 INDICATES THE FIRST INNER ITERATION):

    HEAD CHANGE    HEAD CHANGE    HEAD CHANGE    HEAD CHANGE    HEAD CHANGE 
   LAYER,ROW,COL  LAYER,ROW,COL  LAYER,ROW,COL  LAYER,ROW,COL  LAYER,ROW,COL
 ---------------------------------------------------------------------------
  1   8.269      0  0.1172      0  0.5154E-03  1  0.9208E-05
   (  1, 17, 11)  (  1, 16, 12)  (  1, 17, 11)  (  1, 27,  7)

 MAXIMUM RESIDUAL FOR EACH ITERATION (1 INDICATES THE FIRST INNER ITERATION):

    RESIDUAL       RESIDUAL       RESIDUAL       RESIDUAL       RESIDUAL    
   LAYER,ROW,COL  LAYER,ROW,COL  LAYER,ROW,COL  LAYER,ROW,COL  LAYER,ROW,COL
 ---------------------------------------------------------------------------
  1 -0.3272E-04  0 -0.1856E-06  0 -0.3115E-08  1 -0.9520E-10
   (  1, 16, 12)  (  1, 28,  6)  (  1, 29,  5)  (  1, 28,  6)


 UBUDSV SAVING "      ZETASRF  1" ON UNIT170 AT TIME STEP 95, STRESS PERIOD    2


                      VOLUMETRIC SWI ZONE BUDGET FOR ENTIRE MODEL
                     AT END OF TIME STEP   95 IN STRESS PERIOD   2
                                      ZONE     1
  -----------------------------------------------------------------------------------

        CUMULATIVE VOLUMES      L**3       RATES FOR THIS TIME STEP      L**3/T
        ------------------                 ------------------------

              IN:                                      IN:
              ---                                      ---
             BOUNDARIES =   818735040.0000            BOUNDARIES =           0.1819
          CONSTANT HEAD =           0.0000         CONSTANT HEAD =           0.0000
            ZONE CHANGE =   211593648.0000           ZONE CHANGE =       4.7705E-02
       ZONE CHG TIP/TOE =    13273256.0000      ZONE CHG TIP/TOE =       7.0414E-03
            ZONE MIXING =           0.0000           ZONE MIXING =           0.0000

               TOTAL IN =  1043601920.0000              TOTAL IN =           0.2367

             OUT:                                     OUT:
             ----                                     ----
             BOUNDARIES =   939765312.0000            BOUNDARIES =           0.2565
          CONSTANT HEAD =           0.0000         CONSTANT HEAD =           0.0000
            ZONE CHANGE =    34497028.0000           ZONE CHANGE =       8.5117E-03
       ZONE CHG TIP/TOE =    10430826.0000      ZONE CHG TIP/TOE =       4.0423E-03
            ZONE MIXING =     1480626.8750           ZONE MIXING =       5.4570E-03

              TOTAL OUT =   986173824.0000             TOTAL OUT =           0.2745

               IN - OUT =    57428096.0000              IN - OUT =      -3.7784E-02

    PERCENT DISCREPANCY =           5.66     PERCENT DISCREPANCY =         -14.78



                      VOLUMETRIC SWI ZONE BUDGET FOR ENTIRE MODEL
                     AT END OF TIME STEP   95 IN STRESS PERIOD   2
                                      ZONE     2
  -----------------------------------------------------------------------------------

        CUMULATIVE VOLUMES      L**3       RATES FOR THIS TIME STEP      L**3/T
        ------------------                 ------------------------

              IN:                                      IN:
              ---                                      ---
             BOUNDARIES =   147755664.0000            BOUNDARIES =           0.1355
          CONSTANT HEAD =           0.0000         CONSTANT HEAD =           0.0000
            ZONE CHANGE =    29179532.0000           ZONE CHANGE =       6.3887E-03
       ZONE CHG TIP/TOE =    27790644.0000      ZONE CHG TIP/TOE =       4.4404E-02
            ZONE MIXING =     1480626.8750           ZONE MIXING =       5.4570E-03

               TOTAL IN =   206206464.0000              TOTAL IN =           0.1918

             OUT:                                     OUT:
             ----                                     ----
             BOUNDARIES =   127269456.0000            BOUNDARIES =       9.3956E-02
          CONSTANT HEAD =           0.0000         CONSTANT HEAD =           0.0000
            ZONE CHANGE =    69427568.0000           ZONE CHANGE =       6.0842E-02
       ZONE CHG TIP/TOE =     8466045.0000      ZONE CHG TIP/TOE =       4.6730E-03
            ZONE MIXING =           0.0000           ZONE MIXING =           0.0000

              TOTAL OUT =   205163072.0000             TOTAL OUT =           0.1595

               IN - OUT =     1043392.0000              IN - OUT =       3.2306E-02

    PERCENT DISCREPANCY =           0.51     PERCENT DISCREPANCY =          18.39


 HEAD WILL BE SAVED ON UNIT   37 AT END OF TIME STEP   95, STRESS PERIOD    2

 DRAWDOWN WILL BE SAVED ON UNIT   38 AT END OF TIME STEP   95, STRESS PERIOD    2
1
  VOLUMETRIC BUDGET FOR ENTIRE MODEL AT END OF TIME STEP   95, STRESS PERIOD   2
  ------------------------------------------------------------------------------

     CUMULATIVE VOLUMES      L**3       RATES FOR THIS TIME STEP      L**3/T
     ------------------                 ------------------------

           IN:                                      IN:
           ---                                      ---
             STORAGE =    95230440.0000               STORAGE =       3.3170E-02
       CONSTANT HEAD =           0.0000         CONSTANT HEAD =           0.0000
               WELLS =           0.0000                 WELLS =           0.0000
       RIVER LEAKAGE =   169870816.0000         RIVER LEAKAGE =       3.4000E-02
                  ET =           0.0000                    ET =           0.0000
     HEAD DEP BOUNDS =   159062704.0000       HEAD DEP BOUNDS =           0.1394
            RECHARGE =   693223616.0000              RECHARGE =           0.1636
          SWIADDTOCH =           0.0000            SWIADDTOCH =           0.0000

            TOTAL IN =  1117387520.0000              TOTAL IN =           0.3702

          OUT:                                     OUT:
          ----                                     ----
             STORAGE =      155163.0781               STORAGE =       2.2241E-04
       CONSTANT HEAD =           0.0000         CONSTANT HEAD =           0.0000
               WELLS =   572473024.0000                 WELLS =           0.3700
       RIVER LEAKAGE =    21630804.0000         RIVER LEAKAGE =           0.0000
                  ET =   166413648.0000                    ET =           0.0000
     HEAD DEP BOUNDS =   356727392.0000       HEAD DEP BOUNDS =       1.2037E-05
            RECHARGE =           0.0000              RECHARGE =           0.0000
          SWIADDTOCH =           0.0000            SWIADDTOCH =           0.0000

           TOTAL OUT =  1117399936.0000             TOTAL OUT =           0.3702

            IN - OUT =      -12416.0000              IN - OUT =       2.9802E-08

 PERCENT DISCREPANCY =          -0.00     PERCENT DISCREPANCY =           0.00






         TIME SUMMARY AT END OF TIME STEP   95 IN STRESS PERIOD    2
                    SECONDS     MINUTES      HOURS       DAYS        YEARS
                    -----------------------------------------------------------
   TIME STEP LENGTH 1.57680E+07 2.62800E+05  4380.0      182.50     0.49966    
 STRESS PERIOD TIME 1.49796E+09 2.49660E+07 4.16100E+05  17338.      47.468    
         TOTAL TIME 4.65157E+09 7.75261E+07 1.29210E+06  53838.      147.40    
1
 
 SOLVING FOR HEAD 

 CELL CONVERSIONS FOR ITER.=  2  LAYER=  1  STEP= 96  PERIOD=   2   (ROW,COL)
    DRY(  9, 27)   DRY( 36, 28)   

 CELL CONVERSIONS FOR ITER.=  2  LAYER=  2  STEP= 96  PERIOD=   2   (ROW,COL)
    DRY(  4, 32)   DRY( 51, 38)   

 ISOLATED CELL IS BEING ELIMINATED (LAYER,ROW,COL):     2     3    32
 (PCG7AP)

 ISOLATED CELL IS BEING ELIMINATED (LAYER,ROW,COL):     2     4    33
 (PCG7AP)
    12 CALLS TO PCG ROUTINE FOR TIME STEP  96 IN STRESS PERIOD    2
    29 TOTAL ITERATIONS

 MAXIMUM HEAD CHANGE FOR EACH ITERATION (1 INDICATES THE FIRST INNER ITERATION):

    HEAD CHANGE    HEAD CHANGE    HEAD CHANGE    HEAD CHANGE    HEAD CHANGE 
   LAYER,ROW,COL  LAYER,ROW,COL  LAYER,ROW,COL  LAYER,ROW,COL  LAYER,ROW,COL
 ---------------------------------------------------------------------------
  1 -0.2865      0 -0.8335E-01  0 -0.1696E-01  0 -0.4471E-02  0  0.1295E-02
   (  2, 17, 11)  (  1, 16, 12)  (  2, 19, 12)  (  2, 14, 10)  (  2, 14,  9)
  0  0.3790E-03  1 -0.3693E-01  0  0.5359E-02  0  0.1335E-02  0 -0.3717E-03
   (  1, 13, 10)  (  2, 36, 28)  (  2, 44, 38)  (  2, 44, 38)  (  2,  6, 30)
  1 -0.9742E-02  0 -0.5297E-03  1  0.7599E-02  0  0.2328E-03  1 -0.5899E-02
   (  2, 54, 33)  (  2, 54, 33)  (  2, 54, 33)  (  2, 54, 33)  (  2, 54, 33)
  0 -0.1460E-03  1  0.4553E-02  0  0.1151E-03  1 -0.3520E-02  0 -0.8659E-04
   (  2, 54, 33)  (  2, 54, 33)  (  2, 54, 33)  (  2, 54, 33)  (  2, 54, 33)
  1  0.2716E-02  0  0.6757E-04  1 -0.2097E-02  0 -0.5096E-04  1  0.1617E-02
   (  2, 54, 33)  (  2, 54, 33)  (  2, 54, 33)  (  2, 54, 33)  (  2, 54, 33)
  0  0.3945E-04  1 -0.1248E-02  0 -0.2993E-04  1  0.9636E-03
   (  2, 54, 33)  (  2, 54, 33)  (  2, 54, 33)  (  2, 54, 33)

 MAXIMUM RESIDUAL FOR EACH ITERATION (1 INDICATES THE FIRST INNER ITERATION):

    RESIDUAL       RESIDUAL       RESIDUAL       RESIDUAL       RESIDUAL    
   LAYER,ROW,COL  LAYER,ROW,COL  LAYER,ROW,COL  LAYER,ROW,COL  LAYER,ROW,COL
 ---------------------------------------------------------------------------
  1 -0.7564E-03  0  0.1283E-03  0 -0.4267E-04  0 -0.1479E-04  0  0.4964E-05
   (  2, 18, 11)  (  2, 21,  7)  (  2, 14,  9)  (  2, 14,  9)  (  2, 20, 10)
  0  0.1268E-05  1  0.2347E-04  0  0.8809E-05  0  0.2067E-05  0  0.4906E-06
   (  2, 13, 10)  (  2,  9, 27)  (  2, 37, 27)  (  2, 37, 27)  (  2, 38, 26)
  1 -0.3842E-06  0 -0.1539E-06  1  0.2293E-06  0  0.1345E-06  1 -0.1880E-06
   (  2,  5, 14)  (  2, 52, 34)  (  2, 52, 34)  (  2, 52, 34)  (  2, 52, 34)
  0 -0.1018E-06  1  0.1454E-06  0  0.8189E-07  1 -0.1135E-06  0 -0.6219E-07
   (  2, 52, 34)  (  2, 52, 34)  (  2, 52, 34)  (  2, 52, 34)  (  2, 52, 34)
  1  0.8730E-07  0  0.4901E-07  1 -0.6775E-07  0 -0.3736E-07  1  0.5212E-07
   (  2, 52, 34)  (  2, 52, 34)  (  2, 52, 34)  (  2, 52, 34)  (  2, 52, 34)
  0  0.2917E-07  1 -0.4034E-07  0 -0.2230E-07  1  0.3107E-07
   (  2, 52, 34)  (  2, 52, 34)  (  2, 52, 34)  (  2, 52, 34)



 OUTPUT CONTROL FOR STRESS PERIOD    2   TIME STEP   96
    SAVE HEAD FOR ALL LAYERS
    SAVE DRAWDOWN FOR ALL LAYERS
    SAVE BUDGET
    PRINT BUDGET
 UBDSV1 SAVING "         STORAGE" ON UNIT   9 AT TIME STEP 96, STRESS PERIOD   2
 UBDSV2 SAVING "   CONSTANT HEAD" ON UNIT   9 AT TIME STEP 96, STRESS PERIOD   2
 UBDSV1 SAVING "FLOW RIGHT FACE " ON UNIT   9 AT TIME STEP 96, STRESS PERIOD   2
 UBDSV1 SAVING "FLOW FRONT FACE " ON UNIT   9 AT TIME STEP 96, STRESS PERIOD   2
 UBDSV1 SAVING "FLOW LOWER FACE " ON UNIT   9 AT TIME STEP 96, STRESS PERIOD   2
 UBDSV4 SAVING "           WELLS" ON UNIT   9 AT TIME STEP 96, STRESS PERIOD   2
 UBDSV4 SAVING "   RIVER LEAKAGE" ON UNIT   9 AT TIME STEP 96, STRESS PERIOD   2
 UBDSV3 SAVING "              ET" ON UNIT   9 AT TIME STEP 96, STRESS PERIOD   2
 UBDSV4 SAVING " HEAD DEP BOUNDS" ON UNIT   9 AT TIME STEP 96, STRESS PERIOD   2
 UBDSV3 SAVING "        RECHARGE" ON UNIT   9 AT TIME STEP 96, STRESS PERIOD   2
 SOLVING FOR ZETA FOR LAYER     1 ZONE     2
     2 CALLS TO PCG ROUTINE FOR TIME STEP  96 IN STRESS PERIOD    2
     4 TOTAL ITERATIONS

 MAXIMUM HEAD CHANGE FOR EACH ITERATION (1 INDICATES THE FIRST INNER ITERATION):

    HEAD CHANGE    HEAD CHANGE    HEAD CHANGE    HEAD CHANGE    HEAD CHANGE 
   LAYER,ROW,COL  LAYER,ROW,COL  LAYER,ROW,COL  LAYER,ROW,COL  LAYER,ROW,COL
 ---------------------------------------------------------------------------
  1   18.84      0 -0.2828E-01  0 -0.1187E-03  1 -0.1139E-05
   (  1, 17, 10)  (  1, 13,  9)  (  1, 23,  5)  (  1, 12, 10)

 MAXIMUM RESIDUAL FOR EACH ITERATION (1 INDICATES THE FIRST INNER ITERATION):

    RESIDUAL       RESIDUAL       RESIDUAL       RESIDUAL       RESIDUAL    
   LAYER,ROW,COL  LAYER,ROW,COL  LAYER,ROW,COL  LAYER,ROW,COL  LAYER,ROW,COL
 ---------------------------------------------------------------------------
  1  0.8566E-05  0  0.3486E-07  0  0.4189E-09  1  0.5031E-11
   (  1, 13,  9)  (  1, 23,  5)  (  1, 24,  4)  (  1, 23,  5)


 SOLVING FOR ZETA FOR LAYER     2 ZONE     2
     2 CALLS TO PCG ROUTINE FOR TIME STEP  96 IN STRESS PERIOD    2
     4 TOTAL ITERATIONS

 MAXIMUM HEAD CHANGE FOR EACH ITERATION (1 INDICATES THE FIRST INNER ITERATION):

    HEAD CHANGE    HEAD CHANGE    HEAD CHANGE    HEAD CHANGE    HEAD CHANGE 
   LAYER,ROW,COL  LAYER,ROW,COL  LAYER,ROW,COL  LAYER,ROW,COL  LAYER,ROW,COL
 ---------------------------------------------------------------------------
  1  -5.928      0  0.4070E-01  0  0.5049E-03  1  0.7707E-05
   (  1, 17, 12)  (  1, 18, 12)  (  1, 28,  6)  (  1, 27,  7)

 MAXIMUM RESIDUAL FOR EACH ITERATION (1 INDICATES THE FIRST INNER ITERATION):

    RESIDUAL       RESIDUAL       RESIDUAL       RESIDUAL       RESIDUAL    
   LAYER,ROW,COL  LAYER,ROW,COL  LAYER,ROW,COL  LAYER,ROW,COL  LAYER,ROW,COL
 ---------------------------------------------------------------------------
  1 -0.1153E-04  0 -0.1812E-06  0 -0.2788E-08  1 -0.8552E-10
   (  1, 18, 12)  (  1, 28,  6)  (  1, 29,  5)  (  1, 28,  6)


 UBUDSV SAVING "      ZETASRF  1" ON UNIT170 AT TIME STEP 96, STRESS PERIOD    2


                      VOLUMETRIC SWI ZONE BUDGET FOR ENTIRE MODEL
                     AT END OF TIME STEP   96 IN STRESS PERIOD   2
                                      ZONE     1
  -----------------------------------------------------------------------------------

        CUMULATIVE VOLUMES      L**3       RATES FOR THIS TIME STEP      L**3/T
        ------------------                 ------------------------

              IN:                                      IN:
              ---                                      ---
             BOUNDARIES =   821600064.0000            BOUNDARIES =           0.1817
          CONSTANT HEAD =           0.0000         CONSTANT HEAD =           0.0000
            ZONE CHANGE =   212288528.0000           ZONE CHANGE =       4.4069E-02
       ZONE CHG TIP/TOE =    13413344.0000      ZONE CHG TIP/TOE =       8.8843E-03
            ZONE MIXING =           0.0000           ZONE MIXING =           0.0000

               TOTAL IN =  1047301952.0000              TOTAL IN =           0.2347

             OUT:                                     OUT:
             ----                                     ----
             BOUNDARIES =   943199296.0000            BOUNDARIES =           0.2178
          CONSTANT HEAD =           0.0000         CONSTANT HEAD =           0.0000
            ZONE CHANGE =    34680280.0000           ZONE CHANGE =       1.1622E-02
       ZONE CHG TIP/TOE =    10569935.0000      ZONE CHG TIP/TOE =       8.8222E-03
            ZONE MIXING =     1533417.1250           ZONE MIXING =       3.3479E-03

              TOTAL OUT =   989982912.0000             TOTAL OUT =           0.2416

               IN - OUT =    57319040.0000              IN - OUT =      -6.9224E-03

    PERCENT DISCREPANCY =           5.63     PERCENT DISCREPANCY =          -2.91



                      VOLUMETRIC SWI ZONE BUDGET FOR ENTIRE MODEL
                     AT END OF TIME STEP   96 IN STRESS PERIOD   2
                                      ZONE     2
  -----------------------------------------------------------------------------------

        CUMULATIVE VOLUMES      L**3       RATES FOR THIS TIME STEP      L**3/T
        ------------------                 ------------------------

              IN:                                      IN:
              ---                                      ---
             BOUNDARIES =   149898544.0000            BOUNDARIES =           0.1359
          CONSTANT HEAD =           0.0000         CONSTANT HEAD =           0.0000
            ZONE CHANGE =    29318692.0000           ZONE CHANGE =       8.8255E-03
       ZONE CHG TIP/TOE =    28060618.0000      ZONE CHG TIP/TOE =       1.7122E-02
            ZONE MIXING =     1533417.1250           ZONE MIXING =       3.3479E-03

               TOTAL IN =   208811264.0000              TOTAL IN =           0.1652

             OUT:                                     OUT:
             ----                                     ----
             BOUNDARIES =   129360672.0000            BOUNDARIES =           0.1326
          CONSTANT HEAD =           0.0000         CONSTANT HEAD =           0.0000
            ZONE CHANGE =    69831696.0000           ZONE CHANGE =       2.5630E-02
       ZONE CHG TIP/TOE =     8552369.0000      ZONE CHG TIP/TOE =       5.4746E-03
            ZONE MIXING =           0.0000           ZONE MIXING =           0.0000

              TOTAL OUT =   207744736.0000             TOTAL OUT =           0.1637

               IN - OUT =     1066528.0000              IN - OUT =       1.4678E-03

    PERCENT DISCREPANCY =           0.51     PERCENT DISCREPANCY =           0.89


 HEAD WILL BE SAVED ON UNIT   37 AT END OF TIME STEP   96, STRESS PERIOD    2

 DRAWDOWN WILL BE SAVED ON UNIT   38 AT END OF TIME STEP   96, STRESS PERIOD    2
1
  VOLUMETRIC BUDGET FOR ENTIRE MODEL AT END OF TIME STEP   96, STRESS PERIOD   2
  ------------------------------------------------------------------------------

     CUMULATIVE VOLUMES      L**3       RATES FOR THIS TIME STEP      L**3/T
     ------------------                 ------------------------

           IN:                                      IN:
           ---                                      ---
             STORAGE =    95749592.0000               STORAGE =       3.2924E-02
       CONSTANT HEAD =           0.0000         CONSTANT HEAD =           0.0000
               WELLS =           0.0000                 WELLS =           0.0000
       RIVER LEAKAGE =   170406928.0000         RIVER LEAKAGE =       3.4000E-02
                  ET =           0.0000                    ET =           0.0000
     HEAD DEP BOUNDS =   161269520.0000       HEAD DEP BOUNDS =           0.1400
            RECHARGE =   695797632.0000              RECHARGE =           0.1632
          SWIADDTOCH =           0.0000            SWIADDTOCH =           0.0000

            TOTAL IN =  1123223680.0000              TOTAL IN =           0.3701

          OUT:                                     OUT:
          ----                                     ----
             STORAGE =      157020.8438               STORAGE =       1.1782E-04
       CONSTANT HEAD =           0.0000         CONSTANT HEAD =           0.0000
               WELLS =   578307200.0000                 WELLS =           0.3700
       RIVER LEAKAGE =    21630804.0000         RIVER LEAKAGE =           0.0000
                  ET =   166413648.0000                    ET =           0.0000
     HEAD DEP BOUNDS =   356727456.0000       HEAD DEP BOUNDS =       3.3783E-06
            RECHARGE =           0.0000              RECHARGE =           0.0000
          SWIADDTOCH =           0.0000            SWIADDTOCH =           0.0000

           TOTAL OUT =  1123236096.0000             TOTAL OUT =           0.3701

            IN - OUT =      -12416.0000              IN - OUT =       5.9605E-08

 PERCENT DISCREPANCY =          -0.00     PERCENT DISCREPANCY =           0.00






         TIME SUMMARY AT END OF TIME STEP   96 IN STRESS PERIOD    2
                    SECONDS     MINUTES      HOURS       DAYS        YEARS
                    -----------------------------------------------------------
   TIME STEP LENGTH 1.57680E+07 2.62800E+05  4380.0      182.50     0.49966    
 STRESS PERIOD TIME 1.51373E+09 2.52288E+07 4.20480E+05  17520.      47.967    
         TOTAL TIME 4.66733E+09 7.77889E+07 1.29648E+06  54020.      147.90    
1
 
 SOLVING FOR HEAD 

 CELL CONVERSIONS FOR ITER.=  2  LAYER=  1  STEP= 97  PERIOD=   2   (ROW,COL)
    DRY( 34, 31)   
    18 CALLS TO PCG ROUTINE FOR TIME STEP  97 IN STRESS PERIOD    2
    41 TOTAL ITERATIONS

 MAXIMUM HEAD CHANGE FOR EACH ITERATION (1 INDICATES THE FIRST INNER ITERATION):

    HEAD CHANGE    HEAD CHANGE    HEAD CHANGE    HEAD CHANGE    HEAD CHANGE 
   LAYER,ROW,COL  LAYER,ROW,COL  LAYER,ROW,COL  LAYER,ROW,COL  LAYER,ROW,COL
 ---------------------------------------------------------------------------
  1 -0.2135      0 -0.6840E-01  0 -0.2003E-01  0 -0.5287E-02  0  0.1606E-02
   (  1, 19, 11)  (  2, 13,  9)  (  2, 19, 10)  (  2, 16, 12)  (  2,  6, 10)
  0  0.4976E-03  1 -0.3808E-01  0  0.6714E-02  0  0.1654E-02  0  0.4294E-03
   (  2,  5, 13)  (  2, 34, 31)  (  2, 44, 38)  (  2, 44, 38)  (  2, 44, 38)
  1 -0.7740E-02  0 -0.3695E-03  1  0.6667E-02  0  0.2241E-03  1 -0.5807E-02
   (  2, 54, 33)  (  2, 54, 33)  (  2, 54, 33)  (  2, 54, 33)  (  2, 54, 33)
  0 -0.1309E-03  1  0.5029E-02  0  0.1118E-03  1 -0.4359E-02  0 -0.9367E-04
   (  2, 54, 33)  (  2, 54, 33)  (  2, 54, 33)  (  2, 54, 33)  (  2, 54, 33)
  1  0.3773E-02  0  0.8176E-04  1 -0.3269E-02  0 -0.6943E-04  1  0.2830E-02
   (  2, 54, 33)  (  2, 54, 33)  (  2, 54, 33)  (  2, 54, 33)  (  2, 54, 33)
  0  0.6031E-04  1 -0.2450E-02  0 -0.5156E-04  1  0.2120E-02  0  0.4470E-04
   (  2, 54, 33)  (  2, 54, 33)  (  2, 54, 33)  (  2, 54, 33)  (  2, 54, 33)
  1 -0.1835E-02  0 -0.3839E-04  1  0.1588E-02  0  0.3326E-04  1 -0.1374E-02
   (  2, 54, 33)  (  2, 54, 33)  (  2, 54, 33)  (  2, 54, 33)  (  2, 54, 33)
  0 -0.2865E-04  1  0.1189E-02  0  0.2482E-04  1 -0.1029E-02  0 -0.2141E-04
   (  2, 54, 33)  (  2, 54, 33)  (  2, 54, 33)  (  2, 54, 33)  (  2, 54, 33)
  1  0.8904E-03
   (  2, 54, 33)

 MAXIMUM RESIDUAL FOR EACH ITERATION (1 INDICATES THE FIRST INNER ITERATION):

    RESIDUAL       RESIDUAL       RESIDUAL       RESIDUAL       RESIDUAL    
   LAYER,ROW,COL  LAYER,ROW,COL  LAYER,ROW,COL  LAYER,ROW,COL  LAYER,ROW,COL
 ---------------------------------------------------------------------------
  1 -0.4745E-03  0  0.1698E-03  0 -0.6218E-04  0  0.1408E-04  0  0.3991E-05
   (  2, 19, 11)  (  2, 19, 10)  (  2, 21, 10)  (  2, 14,  9)  (  2, 14,  9)
  0 -0.1667E-05  1  0.2292E-04  0  0.8304E-05  0  0.1986E-05  0  0.5379E-06
   (  2, 18, 11)  (  2, 34, 31)  (  2, 33, 32)  (  2, 35, 30)  (  2, 32, 33)
  1 -0.3389E-06  0  0.1308E-06  1 -0.2308E-06  0  0.1154E-06  1 -0.1787E-06
   (  2,  5, 13)  (  2, 43, 38)  (  2,  5, 13)  (  2, 52, 34)  (  2, 52, 34)
  0 -0.8687E-07  1  0.1520E-06  0  0.8391E-07  1 -0.1346E-06  0 -0.6761E-07
   (  2, 52, 34)  (  2, 52, 34)  (  2, 52, 34)  (  2, 52, 34)  (  2, 52, 34)
  1  0.1150E-06  0  0.6208E-07  1 -0.1007E-06  0 -0.5172E-07  1  0.8659E-07
   (  2, 52, 34)  (  2, 52, 34)  (  2, 52, 34)  (  2, 52, 34)  (  2, 52, 34)
  0  0.4616E-07  1 -0.7540E-07  0 -0.3916E-07  1  0.6502E-07  0  0.3446E-07
   (  2, 52, 34)  (  2, 52, 34)  (  2, 52, 34)  (  2, 52, 34)  (  2, 52, 34)
  1 -0.5645E-07  0 -0.2954E-07  1  0.4877E-07  0  0.2583E-07  1 -0.4228E-07
   (  2, 52, 34)  (  2, 52, 34)  (  2, 52, 34)  (  2, 52, 34)  (  2, 52, 34)
  0 -0.2227E-07  1  0.3655E-07  0  0.1942E-07  1 -0.3168E-07  0 -0.1680E-07
   (  2, 52, 34)  (  2, 52, 34)  (  2, 52, 34)  (  2, 52, 34)  (  2, 52, 34)
  1  0.2742E-07
   (  2, 52, 34)



 OUTPUT CONTROL FOR STRESS PERIOD    2   TIME STEP   97
    SAVE HEAD FOR ALL LAYERS
    SAVE DRAWDOWN FOR ALL LAYERS
    SAVE BUDGET
    PRINT BUDGET
 UBDSV1 SAVING "         STORAGE" ON UNIT   9 AT TIME STEP 97, STRESS PERIOD   2
 UBDSV2 SAVING "   CONSTANT HEAD" ON UNIT   9 AT TIME STEP 97, STRESS PERIOD   2
 UBDSV1 SAVING "FLOW RIGHT FACE " ON UNIT   9 AT TIME STEP 97, STRESS PERIOD   2
 UBDSV1 SAVING "FLOW FRONT FACE " ON UNIT   9 AT TIME STEP 97, STRESS PERIOD   2
 UBDSV1 SAVING "FLOW LOWER FACE " ON UNIT   9 AT TIME STEP 97, STRESS PERIOD   2
 UBDSV4 SAVING "           WELLS" ON UNIT   9 AT TIME STEP 97, STRESS PERIOD   2
 UBDSV4 SAVING "   RIVER LEAKAGE" ON UNIT   9 AT TIME STEP 97, STRESS PERIOD   2
 UBDSV3 SAVING "              ET" ON UNIT   9 AT TIME STEP 97, STRESS PERIOD   2
 UBDSV4 SAVING " HEAD DEP BOUNDS" ON UNIT   9 AT TIME STEP 97, STRESS PERIOD   2
 UBDSV3 SAVING "        RECHARGE" ON UNIT   9 AT TIME STEP 97, STRESS PERIOD   2
 SOLVING FOR ZETA FOR LAYER     1 ZONE     2
     2 CALLS TO PCG ROUTINE FOR TIME STEP  97 IN STRESS PERIOD    2
     4 TOTAL ITERATIONS

 MAXIMUM HEAD CHANGE FOR EACH ITERATION (1 INDICATES THE FIRST INNER ITERATION):

    HEAD CHANGE    HEAD CHANGE    HEAD CHANGE    HEAD CHANGE    HEAD CHANGE 
   LAYER,ROW,COL  LAYER,ROW,COL  LAYER,ROW,COL  LAYER,ROW,COL  LAYER,ROW,COL
 ---------------------------------------------------------------------------
  1   31.67      0  0.6252E-01  0  0.1967E-03  1  0.1432E-05
   (  1, 20,  8)  (  1, 22,  8)  (  1, 21,  9)  (  1, 21,  9)

 MAXIMUM RESIDUAL FOR EACH ITERATION (1 INDICATES THE FIRST INNER ITERATION):

    RESIDUAL       RESIDUAL       RESIDUAL       RESIDUAL       RESIDUAL    
   LAYER,ROW,COL  LAYER,ROW,COL  LAYER,ROW,COL  LAYER,ROW,COL  LAYER,ROW,COL
 ---------------------------------------------------------------------------
  1 -0.1839E-04  0 -0.5704E-07  0  0.4789E-09  1  0.5109E-11
   (  1, 22,  8)  (  1, 21,  9)  (  1, 24,  4)  (  1, 23,  5)


 SOLVING FOR ZETA FOR LAYER     2 ZONE     2
     2 CALLS TO PCG ROUTINE FOR TIME STEP  97 IN STRESS PERIOD    2
     4 TOTAL ITERATIONS

 MAXIMUM HEAD CHANGE FOR EACH ITERATION (1 INDICATES THE FIRST INNER ITERATION):

    HEAD CHANGE    HEAD CHANGE    HEAD CHANGE    HEAD CHANGE    HEAD CHANGE 
   LAYER,ROW,COL  LAYER,ROW,COL  LAYER,ROW,COL  LAYER,ROW,COL  LAYER,ROW,COL
 ---------------------------------------------------------------------------
  1   8.477      0  0.3340E-01  0  0.5426E-03  1  0.6275E-05
   (  1, 17, 11)  (  1, 25,  8)  (  1, 24,  9)  (  1, 29,  5)

 MAXIMUM RESIDUAL FOR EACH ITERATION (1 INDICATES THE FIRST INNER ITERATION):

    RESIDUAL       RESIDUAL       RESIDUAL       RESIDUAL       RESIDUAL    
   LAYER,ROW,COL  LAYER,ROW,COL  LAYER,ROW,COL  LAYER,ROW,COL  LAYER,ROW,COL
 ---------------------------------------------------------------------------
  1 -0.1116E-04  0 -0.1793E-06  0 -0.2445E-08  1 -0.7592E-10
   (  1, 25,  8)  (  1, 24,  9)  (  1, 29,  5)  (  1, 28,  6)


 UBUDSV SAVING "      ZETASRF  1" ON UNIT170 AT TIME STEP 97, STRESS PERIOD    2


                      VOLUMETRIC SWI ZONE BUDGET FOR ENTIRE MODEL
                     AT END OF TIME STEP   97 IN STRESS PERIOD   2
                                      ZONE     1
  -----------------------------------------------------------------------------------

        CUMULATIVE VOLUMES      L**3       RATES FOR THIS TIME STEP      L**3/T
        ------------------                 ------------------------

              IN:                                      IN:
              ---                                      ---
             BOUNDARIES =   824464256.0000            BOUNDARIES =           0.1816
          CONSTANT HEAD =           0.0000         CONSTANT HEAD =           0.0000
            ZONE CHANGE =   213024640.0000           ZONE CHANGE =       4.6684E-02
       ZONE CHG TIP/TOE =    13550910.0000      ZONE CHG TIP/TOE =       8.7244E-03
            ZONE MIXING =           0.0000           ZONE MIXING =           0.0000

               TOTAL IN =  1051039808.0000              TOTAL IN =           0.2371

             OUT:                                     OUT:
             ----                                     ----
             BOUNDARIES =   946866752.0000            BOUNDARIES =           0.2326
          CONSTANT HEAD =           0.0000         CONSTANT HEAD =           0.0000
            ZONE CHANGE =    34839124.0000           ZONE CHANGE =       1.0074E-02
       ZONE CHG TIP/TOE =    10682043.0000      ZONE CHG TIP/TOE =       7.1098E-03
            ZONE MIXING =     1533417.1250           ZONE MIXING =           0.0000

              TOTAL OUT =   993921344.0000             TOTAL OUT =           0.2498

               IN - OUT =    57118464.0000              IN - OUT =      -1.2719E-02

    PERCENT DISCREPANCY =           5.59     PERCENT DISCREPANCY =          -5.23



                      VOLUMETRIC SWI ZONE BUDGET FOR ENTIRE MODEL
                     AT END OF TIME STEP   97 IN STRESS PERIOD   2
                                      ZONE     2
  -----------------------------------------------------------------------------------

        CUMULATIVE VOLUMES      L**3       RATES FOR THIS TIME STEP      L**3/T
        ------------------                 ------------------------

              IN:                                      IN:
              ---                                      ---
             BOUNDARIES =   152044992.0000            BOUNDARIES =           0.1361
          CONSTANT HEAD =           0.0000         CONSTANT HEAD =           0.0000
            ZONE CHANGE =    29442620.0000           ZONE CHANGE =       7.8594E-03
       ZONE CHG TIP/TOE =    28397218.0000      ZONE CHG TIP/TOE =       2.1347E-02
            ZONE MIXING =     1533417.1250           ZONE MIXING =           0.0000

               TOTAL IN =   211418240.0000              TOTAL IN =           0.1653

             OUT:                                     OUT:
             ----                                     ----
             BOUNDARIES =   131218368.0000            BOUNDARIES =           0.1178
          CONSTANT HEAD =           0.0000         CONSTANT HEAD =           0.0000
            ZONE CHANGE =    70367120.0000           ZONE CHANGE =       3.3957E-02
       ZONE CHG TIP/TOE =     8651209.0000      ZONE CHG TIP/TOE =       6.2684E-03
            ZONE MIXING =           0.0000           ZONE MIXING =           0.0000

              TOTAL OUT =   210236704.0000             TOTAL OUT =           0.1580

               IN - OUT =     1181536.0000              IN - OUT =       7.2937E-03

    PERCENT DISCREPANCY =           0.56     PERCENT DISCREPANCY =           4.51


 HEAD WILL BE SAVED ON UNIT   37 AT END OF TIME STEP   97, STRESS PERIOD    2

 DRAWDOWN WILL BE SAVED ON UNIT   38 AT END OF TIME STEP   97, STRESS PERIOD    2
1
  VOLUMETRIC BUDGET FOR ENTIRE MODEL AT END OF TIME STEP   97, STRESS PERIOD   2
  ------------------------------------------------------------------------------

     CUMULATIVE VOLUMES      L**3       RATES FOR THIS TIME STEP      L**3/T
     ------------------                 ------------------------

           IN:                                      IN:
           ---                                      ---
             STORAGE =    96267920.0000               STORAGE =       3.2872E-02
       CONSTANT HEAD =           0.0000         CONSTANT HEAD =           0.0000
               WELLS =           0.0000                 WELLS =           0.0000
       RIVER LEAKAGE =   170943040.0000         RIVER LEAKAGE =       3.4000E-02
                  ET =           0.0000                    ET =           0.0000
     HEAD DEP BOUNDS =   163482032.0000       HEAD DEP BOUNDS =           0.1403
            RECHARGE =   698368640.0000              RECHARGE =           0.1631
          SWIADDTOCH =           0.0000            SWIADDTOCH =           0.0000

            TOTAL IN =  1129061632.0000              TOTAL IN =           0.3702

          OUT:                                     OUT:
          ----                                     ----
             STORAGE =      160811.1406               STORAGE =       2.4038E-04
       CONSTANT HEAD =           0.0000         CONSTANT HEAD =           0.0000
               WELLS =   584141376.0000                 WELLS =           0.3700
       RIVER LEAKAGE =    21630804.0000         RIVER LEAKAGE =           0.0000
                  ET =   166413648.0000                    ET =           0.0000
     HEAD DEP BOUNDS =   356727456.0000       HEAD DEP BOUNDS =           0.0000
            RECHARGE =           0.0000              RECHARGE =           0.0000
          SWIADDTOCH =           0.0000            SWIADDTOCH =           0.0000

           TOTAL OUT =  1129074048.0000             TOTAL OUT =           0.3702

            IN - OUT =      -12416.0000              IN - OUT =           0.0000

 PERCENT DISCREPANCY =          -0.00     PERCENT DISCREPANCY =           0.00






         TIME SUMMARY AT END OF TIME STEP   97 IN STRESS PERIOD    2
                    SECONDS     MINUTES      HOURS       DAYS        YEARS
                    -----------------------------------------------------------
   TIME STEP LENGTH 1.57680E+07 2.62800E+05  4380.0      182.50     0.49966    
 STRESS PERIOD TIME 1.52950E+09 2.54916E+07 4.24860E+05  17703.      48.467    
         TOTAL TIME 4.68310E+09 7.80517E+07 1.30086E+06  54203.      148.40    
1
 
 SOLVING FOR HEAD 

 CELL CONVERSIONS FOR ITER.=  2  LAYER=  1  STEP= 98  PERIOD=   2   (ROW,COL)
    DRY( 20, 33)   DRY( 21, 36)   DRY( 37, 27)   DRY( 37, 29)   DRY( 43, 21)   

 CELL CONVERSIONS FOR ITER.=  5  LAYER=  1  STEP= 98  PERIOD=   2   (ROW,COL)
    DRY( 20, 34)   

 CELL CONVERSIONS FOR ITER.= 10  LAYER=  1  STEP= 98  PERIOD=   2   (ROW,COL)
    DRY( 16, 33)   
    47 CALLS TO PCG ROUTINE FOR TIME STEP  98 IN STRESS PERIOD    2
   103 TOTAL ITERATIONS

 MAXIMUM HEAD CHANGE FOR EACH ITERATION (1 INDICATES THE FIRST INNER ITERATION):

    HEAD CHANGE    HEAD CHANGE    HEAD CHANGE    HEAD CHANGE    HEAD CHANGE 
   LAYER,ROW,COL  LAYER,ROW,COL  LAYER,ROW,COL  LAYER,ROW,COL  LAYER,ROW,COL
 ---------------------------------------------------------------------------
  1 -0.2262      0  0.5098E-01  0 -0.1533E-01  0  0.4718E-02  0 -0.1289E-02
   (  1, 17, 11)  (  2, 23,  9)  (  1, 17, 12)  (  1, 16, 12)  (  2,  7, 12)
  0 -0.4891E-03  1 -0.4492E-01  0  0.7839E-02  0 -0.1944E-02  0 -0.4446E-03
   (  1, 19, 10)  (  2, 21, 36)  (  2, 44, 38)  (  2, 42, 22)  (  2, 17, 40)
  1 -0.1080E-01  0 -0.3886E-03  1  0.6179E-02  0  0.1410E-03  1 -0.4004E-01
   (  2, 44, 38)  (  1, 20, 34)  (  2, 54, 33)  (  2, 43, 38)  (  2, 20, 34)
  0 -0.4055E-02  0 -0.1153E-02  0 -0.2701E-03  1 -0.1944E-01  0 -0.4067E-03
   (  2, 22, 32)  (  2, 19, 35)  (  2, 19, 35)  (  1, 16, 33)  (  1, 16, 33)
  1 -0.5748E-02  0  0.7308E-04  1  0.5640E-02  0  0.8905E-04  1 -0.5538E-02
   (  2, 54, 33)  (  2,  5, 11)  (  2, 54, 33)  (  2, 53, 33)  (  2, 54, 33)
  0 -0.8526E-04  1 -0.4174E-01  0 -0.8048E-02  0 -0.1277E-02  0 -0.2123E-03
   (  2, 53, 33)  (  2, 16, 33)  (  2, 14, 35)  (  2, 15, 34)  (  2, 19, 31)
  1 -0.4824E-02  0 -0.3342E-03  1  0.4779E-02  0  0.1133E-03  1 -0.4586E-02
   (  2, 54, 33)  (  2, 54, 33)  (  2, 54, 33)  (  2, 54, 33)  (  2, 54, 33)
  0 -0.8923E-04  1  0.4386E-02  0  0.8474E-04  1 -0.4194E-02  0 -0.8003E-04
   (  2, 54, 33)  (  2, 54, 33)  (  2, 54, 33)  (  2, 54, 33)  (  2, 54, 33)
  1  0.4009E-02  0  0.7693E-04  1 -0.3833E-02  0 -0.7306E-04  1  0.3663E-02
   (  2, 54, 33)  (  2, 54, 33)  (  2, 54, 33)  (  2, 54, 33)  (  2, 54, 33)
  0  0.7015E-04  1 -0.3502E-02  0 -0.6672E-04  1  0.3347E-02  0  0.6402E-04
   (  2, 54, 33)  (  2, 54, 33)  (  2, 54, 33)  (  2, 54, 33)  (  2, 54, 33)
  1 -0.3200E-02  0 -0.6097E-04  1  0.3058E-02  0  0.5845E-04  1 -0.2924E-02
   (  2, 54, 33)  (  2, 54, 33)  (  2, 54, 33)  (  2, 54, 33)  (  2, 54, 33)
  0 -0.5570E-04  1  0.2794E-02  0  0.5338E-04  1 -0.2671E-02  0 -0.5089E-04
   (  2, 54, 33)  (  2, 54, 33)  (  2, 54, 33)  (  2, 54, 33)  (  2, 54, 33)
  1  0.2554E-02  0  0.4877E-04  1 -0.2442E-02  0 -0.4652E-04  1  0.2334E-02
   (  2, 54, 33)  (  2, 54, 33)  (  2, 54, 33)  (  2, 54, 33)  (  2, 54, 33)
  0  0.4456E-04  1 -0.2231E-02  0 -0.4251E-04  1  0.2133E-02  0  0.4072E-04
   (  2, 54, 33)  (  2, 54, 33)  (  2, 54, 33)  (  2, 54, 33)  (  2, 54, 33)
  1 -0.2039E-02  0 -0.3886E-04  1  0.1949E-02  0  0.3721E-04  1 -0.1864E-02
   (  2, 54, 33)  (  2, 54, 33)  (  2, 54, 33)  (  2, 54, 33)  (  2, 54, 33)
  0 -0.3551E-04  1  0.1781E-02  0  0.3400E-04  1 -0.1702E-02  0 -0.3244E-04
   (  2, 54, 33)  (  2, 54, 33)  (  2, 54, 33)  (  2, 54, 33)  (  2, 54, 33)
  1  0.1627E-02  0  0.3105E-04  1 -0.1556E-02  0 -0.2965E-04  1  0.1488E-02
   (  2, 54, 33)  (  2, 54, 33)  (  2, 54, 33)  (  2, 54, 33)  (  2, 54, 33)
  0  0.2838E-04  1 -0.1422E-02  0 -0.2710E-04  1  0.1360E-02  0  0.2594E-04
   (  2, 54, 33)  (  2, 54, 33)  (  2, 54, 33)  (  2, 54, 33)  (  2, 54, 33)
  1 -0.1300E-02  0 -0.2478E-04  1  0.1243E-02  0  0.2371E-04  1 -0.1188E-02
   (  2, 54, 33)  (  2, 54, 33)  (  2, 54, 33)  (  2, 54, 33)  (  2, 54, 33)
  0 -0.2264E-04  1  0.1136E-02  0  0.2167E-04  1 -0.1086E-02  0 -0.2070E-04
   (  2, 54, 33)  (  2, 54, 33)  (  2, 54, 33)  (  2, 54, 33)  (  2, 54, 33)
  1  0.1038E-02  0  0.1980E-04  1 -0.9912E-03
   (  2, 54, 33)  (  2, 54, 33)  (  2, 54, 33)

 MAXIMUM RESIDUAL FOR EACH ITERATION (1 INDICATES THE FIRST INNER ITERATION):

    RESIDUAL       RESIDUAL       RESIDUAL       RESIDUAL       RESIDUAL    
   LAYER,ROW,COL  LAYER,ROW,COL  LAYER,ROW,COL  LAYER,ROW,COL  LAYER,ROW,COL
 ---------------------------------------------------------------------------
  1 -0.4117E-03  0  0.1604E-03  0 -0.4977E-04  0  0.1301E-04  0  0.5556E-05
   (  2, 18, 11)  (  1, 17, 12)  (  2, 19, 10)  (  2, 21,  9)  (  1, 19, 10)
  0 -0.1583E-05  1  0.2364E-04  0  0.1016E-04  0  0.2307E-05  0 -0.5999E-06
   (  1, 18, 11)  (  2, 20, 33)  (  2, 22, 35)  (  2, 38, 28)  (  2, 20, 33)
  1  0.9453E-05  0  0.1963E-05  1 -0.2709E-05  0 -0.6990E-06  1  0.2798E-04
   (  1, 20, 34)  (  1, 20, 34)  (  2, 20, 34)  (  2, 20, 34)  (  2, 20, 34)
  0  0.9758E-05  0  0.2055E-05  0  0.4451E-06  1  0.2163E-05  0  0.5460E-06
   (  2, 21, 33)  (  2, 19, 35)  (  2, 18, 36)  (  2, 16, 33)  (  2, 16, 33)
  1  0.6783E-06  0  0.1549E-06  1  0.9935E-05  0  0.3662E-05  1 -0.5762E-05
   (  1, 16, 33)  (  1, 16, 33)  (  1, 16, 33)  (  1, 16, 33)  (  2, 16, 33)
  0  0.2231E-05  1  0.2357E-04  0  0.8769E-05  0  0.1612E-05  0  0.3979E-06
   (  1, 16, 33)  (  2, 15, 34)  (  2, 15, 34)  (  2, 15, 34)  (  2, 18, 31)
  1 -0.3241E-06  0 -0.1221E-06  1  0.1386E-06  0  0.8079E-07  1 -0.1384E-06
   (  2, 16, 31)  (  2, 16, 31)  (  2, 52, 34)  (  2, 52, 34)  (  2, 52, 34)
  0 -0.6846E-07  1  0.1298E-06  0  0.7163E-07  1 -0.1260E-06  0 -0.6455E-07
   (  2, 52, 34)  (  2, 52, 34)  (  2, 52, 34)  (  2, 52, 34)  (  2, 52, 34)
  1  0.1192E-06  0  0.6459E-07  1 -0.1149E-06  0 -0.5992E-07  1  0.1093E-06
   (  2, 52, 34)  (  2, 52, 34)  (  2, 52, 34)  (  2, 52, 34)  (  2, 52, 34)
  0  0.5857E-07  1 -0.1048E-06  0 -0.5513E-07  1  0.9995E-07  0  0.5329E-07
   (  2, 52, 34)  (  2, 52, 34)  (  2, 52, 34)  (  2, 52, 34)  (  2, 52, 34)
  1 -0.9571E-07  0 -0.5056E-07  1  0.9138E-07  0  0.4858E-07  1 -0.8740E-07
   (  2, 52, 34)  (  2, 52, 34)  (  2, 52, 34)  (  2, 52, 34)  (  2, 52, 34)
  0 -0.4628E-07  1  0.8352E-07  0  0.4433E-07  1 -0.7985E-07  0 -0.4232E-07
   (  2, 52, 34)  (  2, 52, 34)  (  2, 52, 34)  (  2, 52, 34)  (  2, 52, 34)
  1  0.7634E-07  0  0.4049E-07  1 -0.7297E-07  0 -0.3869E-07  1  0.6977E-07
   (  2, 52, 34)  (  2, 52, 34)  (  2, 52, 34)  (  2, 52, 34)  (  2, 52, 34)
  0  0.3699E-07  1 -0.6668E-07  0 -0.3537E-07  1  0.6375E-07  0  0.3379E-07
   (  2, 52, 34)  (  2, 52, 34)  (  2, 52, 34)  (  2, 52, 34)  (  2, 52, 34)
  1 -0.6093E-07  0 -0.3233E-07  1  0.5827E-07  0  0.3089E-07  1 -0.5569E-07
   (  2, 52, 34)  (  2, 52, 34)  (  2, 52, 34)  (  2, 52, 34)  (  2, 52, 34)
  0 -0.2955E-07  1  0.5324E-07  0  0.2822E-07  1 -0.5088E-07  0 -0.2699E-07
   (  2, 52, 34)  (  2, 52, 34)  (  2, 52, 34)  (  2, 52, 34)  (  2, 52, 34)
  1  0.4864E-07  0  0.2578E-07  1 -0.4649E-07  0 -0.2467E-07  1  0.4447E-07
   (  2, 52, 34)  (  2, 52, 34)  (  2, 52, 34)  (  2, 52, 34)  (  2, 52, 34)
  0  0.2357E-07  1 -0.4251E-07  0 -0.2255E-07  1  0.4064E-07  0  0.2154E-07
   (  2, 52, 34)  (  2, 52, 34)  (  2, 52, 34)  (  2, 52, 34)  (  2, 52, 34)
  1 -0.3885E-07  0 -0.2061E-07  1  0.3714E-07  0  0.1969E-07  1 -0.3550E-07
   (  2, 52, 34)  (  2, 52, 34)  (  2, 52, 34)  (  2, 52, 34)  (  2, 52, 34)
  0 -0.1883E-07  1  0.3396E-07  0  0.1800E-07  1 -0.3246E-07  0 -0.1722E-07
   (  2, 52, 34)  (  2, 52, 34)  (  2, 52, 34)  (  2, 52, 34)  (  2, 52, 34)
  1  0.3102E-07  0  0.1644E-07  1 -0.2963E-07
   (  2, 52, 34)  (  2, 52, 34)  (  2, 52, 34)



 OUTPUT CONTROL FOR STRESS PERIOD    2   TIME STEP   98
    SAVE HEAD FOR ALL LAYERS
    SAVE DRAWDOWN FOR ALL LAYERS
    SAVE BUDGET
    PRINT BUDGET
 UBDSV1 SAVING "         STORAGE" ON UNIT   9 AT TIME STEP 98, STRESS PERIOD   2
 UBDSV2 SAVING "   CONSTANT HEAD" ON UNIT   9 AT TIME STEP 98, STRESS PERIOD   2
 UBDSV1 SAVING "FLOW RIGHT FACE " ON UNIT   9 AT TIME STEP 98, STRESS PERIOD   2
 UBDSV1 SAVING "FLOW FRONT FACE " ON UNIT   9 AT TIME STEP 98, STRESS PERIOD   2
 UBDSV1 SAVING "FLOW LOWER FACE " ON UNIT   9 AT TIME STEP 98, STRESS PERIOD   2
 UBDSV4 SAVING "           WELLS" ON UNIT   9 AT TIME STEP 98, STRESS PERIOD   2
 UBDSV4 SAVING "   RIVER LEAKAGE" ON UNIT   9 AT TIME STEP 98, STRESS PERIOD   2
 UBDSV3 SAVING "              ET" ON UNIT   9 AT TIME STEP 98, STRESS PERIOD   2
 UBDSV4 SAVING " HEAD DEP BOUNDS" ON UNIT   9 AT TIME STEP 98, STRESS PERIOD   2
 UBDSV3 SAVING "        RECHARGE" ON UNIT   9 AT TIME STEP 98, STRESS PERIOD   2
 SOLVING FOR ZETA FOR LAYER     1 ZONE     2
     2 CALLS TO PCG ROUTINE FOR TIME STEP  98 IN STRESS PERIOD    2
     4 TOTAL ITERATIONS

 MAXIMUM HEAD CHANGE FOR EACH ITERATION (1 INDICATES THE FIRST INNER ITERATION):

    HEAD CHANGE    HEAD CHANGE    HEAD CHANGE    HEAD CHANGE    HEAD CHANGE 
   LAYER,ROW,COL  LAYER,ROW,COL  LAYER,ROW,COL  LAYER,ROW,COL  LAYER,ROW,COL
 ---------------------------------------------------------------------------
  1   15.90      0  0.4182E-01  0  0.1799E-03  1 -0.1303E-05
   (  1, 19, 10)  (  1, 19, 11)  (  1, 23,  8)  (  1, 19, 11)

 MAXIMUM RESIDUAL FOR EACH ITERATION (1 INDICATES THE FIRST INNER ITERATION):

    RESIDUAL       RESIDUAL       RESIDUAL       RESIDUAL       RESIDUAL    
   LAYER,ROW,COL  LAYER,ROW,COL  LAYER,ROW,COL  LAYER,ROW,COL  LAYER,ROW,COL
 ---------------------------------------------------------------------------
  1 -0.1125E-04  0 -0.5266E-07  0  0.4244E-09  1 -0.4835E-11
   (  1, 19, 11)  (  1, 23,  8)  (  1, 24,  4)  (  1,  9,  2)


 SOLVING FOR ZETA FOR LAYER     2 ZONE     2
     2 CALLS TO PCG ROUTINE FOR TIME STEP  98 IN STRESS PERIOD    2
     4 TOTAL ITERATIONS

 MAXIMUM HEAD CHANGE FOR EACH ITERATION (1 INDICATES THE FIRST INNER ITERATION):

    HEAD CHANGE    HEAD CHANGE    HEAD CHANGE    HEAD CHANGE    HEAD CHANGE 
   LAYER,ROW,COL  LAYER,ROW,COL  LAYER,ROW,COL  LAYER,ROW,COL  LAYER,ROW,COL
 ---------------------------------------------------------------------------
  1  -6.131      0  0.3947E-01  0  0.6170E-03  1  0.6821E-05
   (  1, 17, 12)  (  1, 18, 12)  (  1, 24,  9)  (  1, 27,  7)

 MAXIMUM RESIDUAL FOR EACH ITERATION (1 INDICATES THE FIRST INNER ITERATION):

    RESIDUAL       RESIDUAL       RESIDUAL       RESIDUAL       RESIDUAL    
   LAYER,ROW,COL  LAYER,ROW,COL  LAYER,ROW,COL  LAYER,ROW,COL  LAYER,ROW,COL
 ---------------------------------------------------------------------------
  1 -0.1263E-04  0 -0.2091E-06  0 -0.2440E-08  1 -0.8029E-10
   (  1, 25,  8)  (  1, 24,  9)  (  1, 29,  5)  (  1, 28,  6)


 UBUDSV SAVING "      ZETASRF  1" ON UNIT170 AT TIME STEP 98, STRESS PERIOD    2


                      VOLUMETRIC SWI ZONE BUDGET FOR ENTIRE MODEL
                     AT END OF TIME STEP   98 IN STRESS PERIOD   2
                                      ZONE     1
  -----------------------------------------------------------------------------------

        CUMULATIVE VOLUMES      L**3       RATES FOR THIS TIME STEP      L**3/T
        ------------------                 ------------------------

              IN:                                      IN:
              ---                                      ---
             BOUNDARIES =   827312960.0000            BOUNDARIES =           0.1807
          CONSTANT HEAD =           0.0000         CONSTANT HEAD =           0.0000
            ZONE CHANGE =   213767040.0000           ZONE CHANGE =       4.7083E-02
       ZONE CHG TIP/TOE =    13615869.0000      ZONE CHG TIP/TOE =       4.1197E-03
            ZONE MIXING =           0.0000           ZONE MIXING =           0.0000

               TOTAL IN =  1054695872.0000              TOTAL IN =           0.2319

             OUT:                                     OUT:
             ----                                     ----
             BOUNDARIES =   950376512.0000            BOUNDARIES =           0.2226
          CONSTANT HEAD =           0.0000         CONSTANT HEAD =           0.0000
            ZONE CHANGE =    34994064.0000           ZONE CHANGE =       9.8263E-03
       ZONE CHG TIP/TOE =    10724351.0000      ZONE CHG TIP/TOE =       2.6831E-03
            ZONE MIXING =     1587693.2500           ZONE MIXING =       3.4422E-03

              TOTAL OUT =   997682624.0000             TOTAL OUT =           0.2385

               IN - OUT =    57013248.0000              IN - OUT =      -6.6750E-03

    PERCENT DISCREPANCY =           5.56     PERCENT DISCREPANCY =          -2.84



                      VOLUMETRIC SWI ZONE BUDGET FOR ENTIRE MODEL
                     AT END OF TIME STEP   98 IN STRESS PERIOD   2
                                      ZONE     2
  -----------------------------------------------------------------------------------

        CUMULATIVE VOLUMES      L**3       RATES FOR THIS TIME STEP      L**3/T
        ------------------                 ------------------------

              IN:                                      IN:
              ---                                      ---
             BOUNDARIES =   154192848.0000            BOUNDARIES =           0.1362
          CONSTANT HEAD =           0.0000         CONSTANT HEAD =           0.0000
            ZONE CHANGE =    29571392.0000           ZONE CHANGE =       8.1667E-03
       ZONE CHG TIP/TOE =    28578300.0000      ZONE CHG TIP/TOE =       1.1484E-02
            ZONE MIXING =     1587693.2500           ZONE MIXING =       3.4422E-03

               TOTAL IN =   213930240.0000              TOTAL IN =           0.1593

             OUT:                                     OUT:
             ----                                     ----
             BOUNDARIES =   133233744.0000            BOUNDARIES =           0.1278
          CONSTANT HEAD =           0.0000         CONSTANT HEAD =           0.0000
            ZONE CHANGE =    70814376.0000           ZONE CHANGE =       2.8365E-02
       ZONE CHG TIP/TOE =     8683209.0000      ZONE CHG TIP/TOE =       2.0294E-03
            ZONE MIXING =           0.0000           ZONE MIXING =           0.0000

              TOTAL OUT =   212731328.0000             TOTAL OUT =           0.1582

               IN - OUT =     1198912.0000              IN - OUT =       1.1012E-03

    PERCENT DISCREPANCY =           0.56     PERCENT DISCREPANCY =           0.69


 HEAD WILL BE SAVED ON UNIT   37 AT END OF TIME STEP   98, STRESS PERIOD    2

 DRAWDOWN WILL BE SAVED ON UNIT   38 AT END OF TIME STEP   98, STRESS PERIOD    2
1
  VOLUMETRIC BUDGET FOR ENTIRE MODEL AT END OF TIME STEP   98, STRESS PERIOD   2
  ------------------------------------------------------------------------------

     CUMULATIVE VOLUMES      L**3       RATES FOR THIS TIME STEP      L**3/T
     ------------------                 ------------------------

           IN:                                      IN:
           ---                                      ---
             STORAGE =    96798744.0000               STORAGE =       3.3665E-02
       CONSTANT HEAD =           0.0000         CONSTANT HEAD =           0.0000
               WELLS =           0.0000                 WELLS =           0.0000
       RIVER LEAKAGE =   171479152.0000         RIVER LEAKAGE =       3.4000E-02
                  ET =           0.0000                    ET =           0.0000
     HEAD DEP BOUNDS =   165701472.0000       HEAD DEP BOUNDS =           0.1408
            RECHARGE =   700918656.0000              RECHARGE =           0.1617
          SWIADDTOCH =           0.0000            SWIADDTOCH =           0.0000

            TOTAL IN =  1134898048.0000              TOTAL IN =           0.3701

          OUT:                                     OUT:
          ----                                     ----
             STORAGE =      163028.6406               STORAGE =       1.4063E-04
       CONSTANT HEAD =           0.0000         CONSTANT HEAD =           0.0000
               WELLS =   589975552.0000                 WELLS =           0.3700
       RIVER LEAKAGE =    21630804.0000         RIVER LEAKAGE =           0.0000
                  ET =   166413648.0000                    ET =           0.0000
     HEAD DEP BOUNDS =   356727456.0000       HEAD DEP BOUNDS =           0.0000
            RECHARGE =           0.0000              RECHARGE =           0.0000
          SWIADDTOCH =           0.0000            SWIADDTOCH =           0.0000

           TOTAL OUT =  1134910464.0000             TOTAL OUT =           0.3701

            IN - OUT =      -12416.0000              IN - OUT =           0.0000

 PERCENT DISCREPANCY =          -0.00     PERCENT DISCREPANCY =           0.00






         TIME SUMMARY AT END OF TIME STEP   98 IN STRESS PERIOD    2
                    SECONDS     MINUTES      HOURS       DAYS        YEARS
                    -----------------------------------------------------------
   TIME STEP LENGTH 1.57680E+07 2.62800E+05  4380.0      182.50     0.49966    
 STRESS PERIOD TIME 1.54527E+09 2.57544E+07 4.29241E+05  17885.      48.967    
         TOTAL TIME 4.69887E+09 7.83145E+07 1.30524E+06  54385.      148.90    
1
 
 SOLVING FOR HEAD 

 CELL CONVERSIONS FOR ITER.=  2  LAYER=  1  STEP= 99  PERIOD=   2   (ROW,COL)
    DRY( 35, 29)   DRY( 36, 29)   

 CELL CONVERSIONS FOR ITER.=  2  LAYER=  2  STEP= 99  PERIOD=   2   (ROW,COL)
    DRY( 54, 33)   
    11 CALLS TO PCG ROUTINE FOR TIME STEP  99 IN STRESS PERIOD    2
    27 TOTAL ITERATIONS

 MAXIMUM HEAD CHANGE FOR EACH ITERATION (1 INDICATES THE FIRST INNER ITERATION):

    HEAD CHANGE    HEAD CHANGE    HEAD CHANGE    HEAD CHANGE    HEAD CHANGE 
   LAYER,ROW,COL  LAYER,ROW,COL  LAYER,ROW,COL  LAYER,ROW,COL  LAYER,ROW,COL
 ---------------------------------------------------------------------------
  1  0.2987      0  0.9913E-01  0 -0.1860E-01  0  0.4541E-02  0  0.1766E-02
   (  2, 17, 11)  (  1, 16, 12)  (  2, 14, 11)  (  1, 13, 10)  (  2,  7, 10)
  0  0.5177E-03  1 -0.5285E-01  0  0.8212E-02  0  0.2219E-02  0  0.6407E-03
   (  2,  5, 11)  (  2, 35, 29)  (  2, 44, 38)  (  2, 44, 38)  (  2, 44, 38)
  1 -0.1315E-01  0 -0.7640E-03  1  0.5425E-02  0  0.3251E-03  1 -0.2251E-02
   (  2, 44, 38)  (  2, 44, 38)  (  2, 44, 38)  (  2, 44, 38)  (  2, 44, 38)
  0 -0.1080E-03  1  0.1574E-02  0  0.6417E-04  1 -0.1406E-02  0 -0.4262E-04
   (  2, 44, 38)  (  2, 19, 47)  (  2, 19, 47)  (  2, 19, 47)  (  2, 19, 47)
  1  0.1261E-02  0  0.3440E-04  1 -0.1133E-02  0 -0.2926E-04  1  0.1018E-02
   (  2, 19, 47)  (  2, 19, 47)  (  2, 19, 47)  (  2, 19, 47)  (  2, 19, 47)
  0  0.2590E-04  1 -0.9143E-03
   (  2, 19, 47)  (  2, 19, 47)

 MAXIMUM RESIDUAL FOR EACH ITERATION (1 INDICATES THE FIRST INNER ITERATION):

    RESIDUAL       RESIDUAL       RESIDUAL       RESIDUAL       RESIDUAL    
   LAYER,ROW,COL  LAYER,ROW,COL  LAYER,ROW,COL  LAYER,ROW,COL  LAYER,ROW,COL
 ---------------------------------------------------------------------------
  1  0.5974E-03  0  0.2031E-03  0  0.5330E-04  0 -0.1690E-04  0  0.5080E-05
   (  2, 18, 11)  (  2, 17, 11)  (  2, 19, 10)  (  1, 13, 10)  (  2, 15, 10)
  0  0.1507E-05  1  0.2823E-04  0  0.9144E-05  0  0.1834E-05  0  0.7215E-06
   (  1, 19, 11)  (  2, 34, 30)  (  2, 34, 30)  (  2, 36, 28)  (  2, 33, 31)
  1 -0.5331E-06  0  0.2099E-06  1 -0.3176E-06  0 -0.1263E-06  1 -0.1209E-06
   (  2,  5, 11)  (  2, 43, 38)  (  2,  5, 11)  (  2, 43, 38)  (  2,  5, 11)
  0  0.6093E-07  1 -0.6478E-07  0 -0.2931E-07  1 -0.3826E-07  0  0.2157E-07
   (  2, 43, 38)  (  2,  5, 11)  (  2, 43, 38)  (  2, 21, 46)  (  2, 20, 47)
  1  0.3406E-07  0 -0.1989E-07  1 -0.3063E-07  0  0.1751E-07  1  0.2736E-07
   (  2, 21, 46)  (  2, 20, 47)  (  2, 21, 46)  (  2, 20, 47)  (  2, 21, 46)
  0 -0.1591E-07  1 -0.2462E-07
   (  2, 20, 47)  (  2, 21, 46)



 OUTPUT CONTROL FOR STRESS PERIOD    2   TIME STEP   99
    SAVE HEAD FOR ALL LAYERS
    SAVE DRAWDOWN FOR ALL LAYERS
    SAVE BUDGET
    PRINT BUDGET
 UBDSV1 SAVING "         STORAGE" ON UNIT   9 AT TIME STEP 99, STRESS PERIOD   2
 UBDSV2 SAVING "   CONSTANT HEAD" ON UNIT   9 AT TIME STEP 99, STRESS PERIOD   2
 UBDSV1 SAVING "FLOW RIGHT FACE " ON UNIT   9 AT TIME STEP 99, STRESS PERIOD   2
 UBDSV1 SAVING "FLOW FRONT FACE " ON UNIT   9 AT TIME STEP 99, STRESS PERIOD   2
 UBDSV1 SAVING "FLOW LOWER FACE " ON UNIT   9 AT TIME STEP 99, STRESS PERIOD   2
 UBDSV4 SAVING "           WELLS" ON UNIT   9 AT TIME STEP 99, STRESS PERIOD   2
 UBDSV4 SAVING "   RIVER LEAKAGE" ON UNIT   9 AT TIME STEP 99, STRESS PERIOD   2
 UBDSV3 SAVING "              ET" ON UNIT   9 AT TIME STEP 99, STRESS PERIOD   2
 UBDSV4 SAVING " HEAD DEP BOUNDS" ON UNIT   9 AT TIME STEP 99, STRESS PERIOD   2
 UBDSV3 SAVING "        RECHARGE" ON UNIT   9 AT TIME STEP 99, STRESS PERIOD   2
 SOLVING FOR ZETA FOR LAYER     1 ZONE     2
     2 CALLS TO PCG ROUTINE FOR TIME STEP  99 IN STRESS PERIOD    2
     4 TOTAL ITERATIONS

 MAXIMUM HEAD CHANGE FOR EACH ITERATION (1 INDICATES THE FIRST INNER ITERATION):

    HEAD CHANGE    HEAD CHANGE    HEAD CHANGE    HEAD CHANGE    HEAD CHANGE 
   LAYER,ROW,COL  LAYER,ROW,COL  LAYER,ROW,COL  LAYER,ROW,COL  LAYER,ROW,COL
 ---------------------------------------------------------------------------
  1   9.662      0  0.2793E-01  0 -0.1073E-03  1  0.9740E-06
   (  1, 17, 11)  (  1, 23,  8)  (  1, 23,  5)  (  1, 22,  9)

 MAXIMUM RESIDUAL FOR EACH ITERATION (1 INDICATES THE FIRST INNER ITERATION):

    RESIDUAL       RESIDUAL       RESIDUAL       RESIDUAL       RESIDUAL    
   LAYER,ROW,COL  LAYER,ROW,COL  LAYER,ROW,COL  LAYER,ROW,COL  LAYER,ROW,COL
 ---------------------------------------------------------------------------
  1 -0.7773E-05  0  0.3172E-07  0  0.2959E-09  1 -0.4470E-11
   (  1, 23,  8)  (  1, 23,  5)  (  1, 24,  4)  (  1,  9,  2)


 SOLVING FOR ZETA FOR LAYER     2 ZONE     2
     2 CALLS TO PCG ROUTINE FOR TIME STEP  99 IN STRESS PERIOD    2
     4 TOTAL ITERATIONS

 MAXIMUM HEAD CHANGE FOR EACH ITERATION (1 INDICATES THE FIRST INNER ITERATION):

    HEAD CHANGE    HEAD CHANGE    HEAD CHANGE    HEAD CHANGE    HEAD CHANGE 
   LAYER,ROW,COL  LAYER,ROW,COL  LAYER,ROW,COL  LAYER,ROW,COL  LAYER,ROW,COL
 ---------------------------------------------------------------------------
  1   8.896      0  0.3696E-01  0  0.7379E-03  1 -0.4115E-05
   (  1, 17, 11)  (  1, 25,  8)  (  1, 24,  9)  (  1,  6, 10)

 MAXIMUM RESIDUAL FOR EACH ITERATION (1 INDICATES THE FIRST INNER ITERATION):

    RESIDUAL       RESIDUAL       RESIDUAL       RESIDUAL       RESIDUAL    
   LAYER,ROW,COL  LAYER,ROW,COL  LAYER,ROW,COL  LAYER,ROW,COL  LAYER,ROW,COL
 ---------------------------------------------------------------------------
  1 -0.1237E-04  0 -0.2517E-06  0  0.1377E-08  1 -0.1676E-10
   (  1, 25,  8)  (  1, 24,  9)  (  1,  6, 10)  (  1, 30,  4)


 UBUDSV SAVING "      ZETASRF  1" ON UNIT170 AT TIME STEP 99, STRESS PERIOD    2


                      VOLUMETRIC SWI ZONE BUDGET FOR ENTIRE MODEL
                     AT END OF TIME STEP   99 IN STRESS PERIOD   2
                                      ZONE     1
  -----------------------------------------------------------------------------------

        CUMULATIVE VOLUMES      L**3       RATES FOR THIS TIME STEP      L**3/T
        ------------------                 ------------------------

              IN:                                      IN:
              ---                                      ---
             BOUNDARIES =   830158016.0000            BOUNDARIES =           0.1804
          CONSTANT HEAD =           0.0000         CONSTANT HEAD =           0.0000
            ZONE CHANGE =   214418272.0000           ZONE CHANGE =       4.1301E-02
       ZONE CHG TIP/TOE =    13685125.0000      ZONE CHG TIP/TOE =       4.3922E-03
            ZONE MIXING =           0.0000           ZONE MIXING =           0.0000

               TOTAL IN =  1058261376.0000              TOTAL IN =           0.2261

             OUT:                                     OUT:
             ----                                     ----
             BOUNDARIES =   953784896.0000            BOUNDARIES =           0.2162
          CONSTANT HEAD =           0.0000         CONSTANT HEAD =           0.0000
            ZONE CHANGE =    35183316.0000           ZONE CHANGE =       1.2002E-02
       ZONE CHG TIP/TOE =    10788913.0000      ZONE CHG TIP/TOE =       4.0945E-03
            ZONE MIXING =     1587693.2500           ZONE MIXING =           0.0000

              TOTAL OUT =  1001344832.0000             TOTAL OUT =           0.2323

               IN - OUT =    56916544.0000              IN - OUT =      -6.1313E-03

    PERCENT DISCREPANCY =           5.53     PERCENT DISCREPANCY =          -2.68



                      VOLUMETRIC SWI ZONE BUDGET FOR ENTIRE MODEL
                     AT END OF TIME STEP   99 IN STRESS PERIOD   2
                                      ZONE     2
  -----------------------------------------------------------------------------------

        CUMULATIVE VOLUMES      L**3       RATES FOR THIS TIME STEP      L**3/T
        ------------------                 ------------------------

              IN:                                      IN:
              ---                                      ---
             BOUNDARIES =   156344528.0000            BOUNDARIES =           0.1365
          CONSTANT HEAD =           0.0000         CONSTANT HEAD =           0.0000
            ZONE CHANGE =    29752570.0000           ZONE CHANGE =       1.1490E-02
       ZONE CHG TIP/TOE =    28711726.0000      ZONE CHG TIP/TOE =       8.4618E-03
            ZONE MIXING =     1587693.2500           ZONE MIXING =           0.0000

               TOTAL IN =   216396512.0000              TOTAL IN =           0.1564

             OUT:                                     OUT:
             ----                                     ----
             BOUNDARIES =   135350496.0000            BOUNDARIES =           0.1342
          CONSTANT HEAD =           0.0000         CONSTANT HEAD =           0.0000
            ZONE CHANGE =    71098368.0000           ZONE CHANGE =       1.8011E-02
       ZONE CHG TIP/TOE =     8739926.0000      ZONE CHG TIP/TOE =       3.5970E-03
            ZONE MIXING =           0.0000           ZONE MIXING =           0.0000

              TOTAL OUT =   215188800.0000             TOTAL OUT =           0.1559

               IN - OUT =     1207712.0000              IN - OUT =       5.5923E-04

    PERCENT DISCREPANCY =           0.56     PERCENT DISCREPANCY =           0.36


 HEAD WILL BE SAVED ON UNIT   37 AT END OF TIME STEP   99, STRESS PERIOD    2

 DRAWDOWN WILL BE SAVED ON UNIT   38 AT END OF TIME STEP   99, STRESS PERIOD    2
1
  VOLUMETRIC BUDGET FOR ENTIRE MODEL AT END OF TIME STEP   99, STRESS PERIOD   2
  ------------------------------------------------------------------------------

     CUMULATIVE VOLUMES      L**3       RATES FOR THIS TIME STEP      L**3/T
     ------------------                 ------------------------

           IN:                                      IN:
           ---                                      ---
             STORAGE =    97331656.0000               STORAGE =       3.3797E-02
       CONSTANT HEAD =           0.0000         CONSTANT HEAD =           0.0000
               WELLS =           0.0000                 WELLS =           0.0000
       RIVER LEAKAGE =   172015264.0000         RIVER LEAKAGE =       3.4000E-02
                  ET =           0.0000                    ET =           0.0000
     HEAD DEP BOUNDS =   167927088.0000       HEAD DEP BOUNDS =           0.1411
            RECHARGE =   703462656.0000              RECHARGE =           0.1613
          SWIADDTOCH =           0.0000            SWIADDTOCH =           0.0000

            TOTAL IN =  1140736640.0000              TOTAL IN =           0.3703

          OUT:                                     OUT:
          ----                                     ----
             STORAGE =      167510.5469               STORAGE =       2.8424E-04
       CONSTANT HEAD =           0.0000         CONSTANT HEAD =           0.0000
               WELLS =   595809728.0000                 WELLS =           0.3700
       RIVER LEAKAGE =    21630804.0000         RIVER LEAKAGE =           0.0000
                  ET =   166413648.0000                    ET =           0.0000
     HEAD DEP BOUNDS =   356727456.0000       HEAD DEP BOUNDS =           0.0000
            RECHARGE =           0.0000              RECHARGE =           0.0000
          SWIADDTOCH =           0.0000            SWIADDTOCH =           0.0000

           TOTAL OUT =  1140749056.0000             TOTAL OUT =           0.3703

            IN - OUT =      -12416.0000              IN - OUT =           0.0000

 PERCENT DISCREPANCY =          -0.00     PERCENT DISCREPANCY =           0.00






         TIME SUMMARY AT END OF TIME STEP   99 IN STRESS PERIOD    2
                    SECONDS     MINUTES      HOURS       DAYS        YEARS
                    -----------------------------------------------------------
   TIME STEP LENGTH 1.57680E+07 2.62800E+05  4380.0      182.50     0.49966    
 STRESS PERIOD TIME 1.56103E+09 2.60172E+07 4.33621E+05  18068.      49.466    
         TOTAL TIME 4.71464E+09 7.85773E+07 1.30962E+06  54568.      149.40    
1
 
 SOLVING FOR HEAD 

 CELL CONVERSIONS FOR ITER.=  2  LAYER=  1  STEP=100  PERIOD=   2   (ROW,COL)
    DRY( 14, 31)   
     8 CALLS TO PCG ROUTINE FOR TIME STEP 100 IN STRESS PERIOD    2
    21 TOTAL ITERATIONS

 MAXIMUM HEAD CHANGE FOR EACH ITERATION (1 INDICATES THE FIRST INNER ITERATION):

    HEAD CHANGE    HEAD CHANGE    HEAD CHANGE    HEAD CHANGE    HEAD CHANGE 
   LAYER,ROW,COL  LAYER,ROW,COL  LAYER,ROW,COL  LAYER,ROW,COL  LAYER,ROW,COL
 ---------------------------------------------------------------------------
  1 -0.3338      0 -0.1221      0 -0.2404E-01  0 -0.7018E-02  0  0.1640E-02
   (  2, 17, 11)  (  1, 16, 12)  (  2, 20, 12)  (  1, 18, 11)  (  2, 18, 10)
  0  0.4330E-03  1 -0.4221E-01  0  0.6101E-02  0  0.1767E-02  0  0.5145E-03
   (  1, 18, 12)  (  2, 14, 31)  (  2, 44, 38)  (  2, 44, 38)  (  2, 44, 38)
  1 -0.1682E-01  0 -0.5480E-03  1  0.8723E-02  0  0.3662E-03  1 -0.4565E-02
   (  2, 44, 38)  (  2, 44, 38)  (  2, 44, 38)  (  2, 44, 38)  (  2, 44, 38)
  0 -0.1666E-03  1  0.2353E-02  0  0.9729E-04  1 -0.1237E-02  0 -0.4134E-04
   (  2, 44, 38)  (  2, 44, 38)  (  2, 44, 38)  (  2, 44, 38)  (  2, 44, 38)
  1  0.9289E-03
   (  2, 19, 47)

 MAXIMUM RESIDUAL FOR EACH ITERATION (1 INDICATES THE FIRST INNER ITERATION):

    RESIDUAL       RESIDUAL       RESIDUAL       RESIDUAL       RESIDUAL    
   LAYER,ROW,COL  LAYER,ROW,COL  LAYER,ROW,COL  LAYER,ROW,COL  LAYER,ROW,COL
 ---------------------------------------------------------------------------
  1 -0.5205E-03  0 -0.2937E-03  0  0.5717E-04  0 -0.2133E-04  0  0.4889E-05
   (  2, 17, 11)  (  2, 17, 11)  (  1, 18, 11)  (  2, 18, 10)  (  2, 15, 12)
  0 -0.1463E-05  1  0.2072E-04  0  0.9724E-05  0  0.2096E-05  0 -0.7267E-06
   (  1, 17, 12)  (  2, 15, 30)  (  2, 15, 30)  (  2, 15, 30)  (  2, 16, 30)
  1 -0.6512E-06  0 -0.2452E-06  1  0.2924E-06  0 -0.1732E-06  1 -0.1755E-06
   (  2, 15, 31)  (  2, 15, 31)  (  2, 44, 37)  (  2, 43, 38)  (  2, 44, 37)
  0  0.9174E-07  1  0.9366E-07  0 -0.5378E-07  1 -0.4998E-07  0  0.2761E-07
   (  2, 43, 38)  (  2, 44, 37)  (  2, 43, 38)  (  2, 44, 37)  (  2, 43, 38)
  1  0.2834E-07
   (  2,  6, 11)



 OUTPUT CONTROL FOR STRESS PERIOD    2   TIME STEP  100
    SAVE HEAD FOR ALL LAYERS
    SAVE DRAWDOWN FOR ALL LAYERS
    SAVE BUDGET
    PRINT BUDGET
 UBDSV1 SAVING "         STORAGE" ON UNIT   9 AT TIME STEP100, STRESS PERIOD   2
 UBDSV2 SAVING "   CONSTANT HEAD" ON UNIT   9 AT TIME STEP100, STRESS PERIOD   2
 UBDSV1 SAVING "FLOW RIGHT FACE " ON UNIT   9 AT TIME STEP100, STRESS PERIOD   2
 UBDSV1 SAVING "FLOW FRONT FACE " ON UNIT   9 AT TIME STEP100, STRESS PERIOD   2
 UBDSV1 SAVING "FLOW LOWER FACE " ON UNIT   9 AT TIME STEP100, STRESS PERIOD   2
 UBDSV4 SAVING "           WELLS" ON UNIT   9 AT TIME STEP100, STRESS PERIOD   2
 UBDSV4 SAVING "   RIVER LEAKAGE" ON UNIT   9 AT TIME STEP100, STRESS PERIOD   2
 UBDSV3 SAVING "              ET" ON UNIT   9 AT TIME STEP100, STRESS PERIOD   2
 UBDSV4 SAVING " HEAD DEP BOUNDS" ON UNIT   9 AT TIME STEP100, STRESS PERIOD   2
 UBDSV3 SAVING "        RECHARGE" ON UNIT   9 AT TIME STEP100, STRESS PERIOD   2
 SOLVING FOR ZETA FOR LAYER     1 ZONE     2
     2 CALLS TO PCG ROUTINE FOR TIME STEP 100 IN STRESS PERIOD    2
     4 TOTAL ITERATIONS

 MAXIMUM HEAD CHANGE FOR EACH ITERATION (1 INDICATES THE FIRST INNER ITERATION):

    HEAD CHANGE    HEAD CHANGE    HEAD CHANGE    HEAD CHANGE    HEAD CHANGE 
   LAYER,ROW,COL  LAYER,ROW,COL  LAYER,ROW,COL  LAYER,ROW,COL  LAYER,ROW,COL
 ---------------------------------------------------------------------------
  1   33.18      0  0.1576      0  0.8471E-03  1 -0.3287E-05
   (  1, 18, 10)  (  1, 16, 11)  (  1, 17, 10)  (  1, 16, 11)

 MAXIMUM RESIDUAL FOR EACH ITERATION (1 INDICATES THE FIRST INNER ITERATION):

    RESIDUAL       RESIDUAL       RESIDUAL       RESIDUAL       RESIDUAL    
   LAYER,ROW,COL  LAYER,ROW,COL  LAYER,ROW,COL  LAYER,ROW,COL  LAYER,ROW,COL
 ---------------------------------------------------------------------------
  1 -0.4195E-04  0 -0.2816E-06  0  0.9518E-09  1 -0.5618E-11
   (  1, 16, 11)  (  1, 17, 10)  (  1, 16, 11)  (  1, 16,  9)


 SOLVING FOR ZETA FOR LAYER     2 ZONE     2
     2 CALLS TO PCG ROUTINE FOR TIME STEP 100 IN STRESS PERIOD    2
     4 TOTAL ITERATIONS

 MAXIMUM HEAD CHANGE FOR EACH ITERATION (1 INDICATES THE FIRST INNER ITERATION):

    HEAD CHANGE    HEAD CHANGE    HEAD CHANGE    HEAD CHANGE    HEAD CHANGE 
   LAYER,ROW,COL  LAYER,ROW,COL  LAYER,ROW,COL  LAYER,ROW,COL  LAYER,ROW,COL
 ---------------------------------------------------------------------------
  1  -6.354      0  0.7524E-01  0  0.4965E-03  1  0.1046E-04
   (  1, 17, 12)  (  1, 18, 12)  (  1, 28,  6)  (  1, 27,  7)

 MAXIMUM RESIDUAL FOR EACH ITERATION (1 INDICATES THE FIRST INNER ITERATION):

    RESIDUAL       RESIDUAL       RESIDUAL       RESIDUAL       RESIDUAL    
   LAYER,ROW,COL  LAYER,ROW,COL  LAYER,ROW,COL  LAYER,ROW,COL  LAYER,ROW,COL
 ---------------------------------------------------------------------------
  1 -0.2143E-04  0 -0.1805E-06  0 -0.3452E-08  1 -0.1089E-09
   (  1, 18, 12)  (  1, 28,  6)  (  1, 27,  7)  (  1, 28,  6)


 UBUDSV SAVING "      ZETASRF  1" ON UNIT170 AT TIME STEP100, STRESS PERIOD    2


                      VOLUMETRIC SWI ZONE BUDGET FOR ENTIRE MODEL
                     AT END OF TIME STEP  100 IN STRESS PERIOD   2
                                      ZONE     1
  -----------------------------------------------------------------------------------

        CUMULATIVE VOLUMES      L**3       RATES FOR THIS TIME STEP      L**3/T
        ------------------                 ------------------------

              IN:                                      IN:
              ---                                      ---
             BOUNDARIES =   833002304.0000            BOUNDARIES =           0.1804
          CONSTANT HEAD =           0.0000         CONSTANT HEAD =           0.0000
            ZONE CHANGE =   215074528.0000           ZONE CHANGE =       4.1620E-02
       ZONE CHG TIP/TOE =    13807253.0000      ZONE CHG TIP/TOE =       7.7453E-03
            ZONE MIXING =           0.0000           ZONE MIXING =           0.0000

               TOTAL IN =  1061884096.0000              TOTAL IN =           0.2297

             OUT:                                     OUT:
             ----                                     ----
             BOUNDARIES =   957875840.0000            BOUNDARIES =           0.2594
          CONSTANT HEAD =           0.0000         CONSTANT HEAD =           0.0000
            ZONE CHANGE =    35388692.0000           ZONE CHANGE =       1.3025E-02
       ZONE CHG TIP/TOE =    10889811.0000      ZONE CHG TIP/TOE =       6.3989E-03
            ZONE MIXING =     1587693.2500           ZONE MIXING =           0.0000

              TOTAL OUT =  1005742016.0000             TOTAL OUT =           0.2789

               IN - OUT =    56142080.0000              IN - OUT =      -4.9123E-02

    PERCENT DISCREPANCY =           5.43     PERCENT DISCREPANCY =         -19.32



                      VOLUMETRIC SWI ZONE BUDGET FOR ENTIRE MODEL
                     AT END OF TIME STEP  100 IN STRESS PERIOD   2
                                      ZONE     2
  -----------------------------------------------------------------------------------

        CUMULATIVE VOLUMES      L**3       RATES FOR THIS TIME STEP      L**3/T
        ------------------                 ------------------------

              IN:                                      IN:
              ---                                      ---
             BOUNDARIES =   158502896.0000            BOUNDARIES =           0.1369
          CONSTANT HEAD =           0.0000         CONSTANT HEAD =           0.0000
            ZONE CHANGE =    29898100.0000           ZONE CHANGE =       9.2294E-03
       ZONE CHG TIP/TOE =    29577524.0000      ZONE CHG TIP/TOE =       5.4909E-02
            ZONE MIXING =     1587693.2500           ZONE MIXING =           0.0000

               TOTAL IN =   219566208.0000              TOTAL IN =           0.2010

             OUT:                                     OUT:
             ----                                     ----
             BOUNDARIES =   136784688.0000            BOUNDARIES =       9.0956E-02
          CONSTANT HEAD =           0.0000         CONSTANT HEAD =           0.0000
            ZONE CHANGE =    72090232.0000           ZONE CHANGE =       6.2903E-02
       ZONE CHG TIP/TOE =     8795867.0000      ZONE CHG TIP/TOE =       3.5478E-03
            ZONE MIXING =           0.0000           ZONE MIXING =           0.0000

              TOTAL OUT =   217670784.0000             TOTAL OUT =           0.1574

               IN - OUT =     1895424.0000              IN - OUT =       4.3613E-02

    PERCENT DISCREPANCY =           0.87     PERCENT DISCREPANCY =          24.34


 HEAD WILL BE SAVED ON UNIT   37 AT END OF TIME STEP  100, STRESS PERIOD    2

 DRAWDOWN WILL BE SAVED ON UNIT   38 AT END OF TIME STEP  100, STRESS PERIOD    2
1
  VOLUMETRIC BUDGET FOR ENTIRE MODEL AT END OF TIME STEP  100, STRESS PERIOD   2
  ------------------------------------------------------------------------------

     CUMULATIVE VOLUMES      L**3       RATES FOR THIS TIME STEP      L**3/T
     ------------------                 ------------------------

           IN:                                      IN:
           ---                                      ---
             STORAGE =    97857496.0000               STORAGE =       3.3348E-02
       CONSTANT HEAD =           0.0000         CONSTANT HEAD =           0.0000
               WELLS =           0.0000                 WELLS =           0.0000
       RIVER LEAKAGE =   172551376.0000         RIVER LEAKAGE =       3.4000E-02
                  ET =           0.0000                    ET =           0.0000
     HEAD DEP BOUNDS =   170161632.0000       HEAD DEP BOUNDS =           0.1417
            RECHARGE =   706003648.0000              RECHARGE =           0.1611
          SWIADDTOCH =           0.0000            SWIADDTOCH =           0.0000

            TOTAL IN =  1146574080.0000              TOTAL IN =           0.3702

          OUT:                                     OUT:
          ----                                     ----
             STORAGE =      170841.5938               STORAGE =       2.1125E-04
       CONSTANT HEAD =           0.0000         CONSTANT HEAD =           0.0000
               WELLS =   601643904.0000                 WELLS =           0.3700
       RIVER LEAKAGE =    21630804.0000         RIVER LEAKAGE =           0.0000
                  ET =   166413648.0000                    ET =           0.0000
     HEAD DEP BOUNDS =   356727456.0000       HEAD DEP BOUNDS =           0.0000
            RECHARGE =           0.0000              RECHARGE =           0.0000
          SWIADDTOCH =           0.0000            SWIADDTOCH =           0.0000

           TOTAL OUT =  1146586624.0000             TOTAL OUT =           0.3702

            IN - OUT =      -12544.0000              IN - OUT =           0.0000

 PERCENT DISCREPANCY =          -0.00     PERCENT DISCREPANCY =           0.00






         TIME SUMMARY AT END OF TIME STEP  100 IN STRESS PERIOD    2
                    SECONDS     MINUTES      HOURS       DAYS        YEARS
                    -----------------------------------------------------------
   TIME STEP LENGTH 1.57680E+07 2.62800E+05  4380.0      182.50     0.49966    
 STRESS PERIOD TIME 1.57680E+09 2.62800E+07 4.38001E+05  18250.      49.966    
         TOTAL TIME 4.73041E+09 7.88401E+07 1.31400E+06  54750.      149.90    
1
 
 SOLVING FOR HEAD 

 CELL CONVERSIONS FOR ITER.=  2  LAYER=  2  STEP=101  PERIOD=   2   (ROW,COL)
    DRY( 11, 32)   DRY( 19, 47)   
    10 CALLS TO PCG ROUTINE FOR TIME STEP 101 IN STRESS PERIOD    2
    25 TOTAL ITERATIONS

 MAXIMUM HEAD CHANGE FOR EACH ITERATION (1 INDICATES THE FIRST INNER ITERATION):

    HEAD CHANGE    HEAD CHANGE    HEAD CHANGE    HEAD CHANGE    HEAD CHANGE 
   LAYER,ROW,COL  LAYER,ROW,COL  LAYER,ROW,COL  LAYER,ROW,COL  LAYER,ROW,COL
 ---------------------------------------------------------------------------
  1 -0.2199      0 -0.6396E-01  0 -0.2456E-01  0  0.5025E-02  0 -0.1351E-02
   (  2, 19, 11)  (  2, 13, 10)  (  2, 20, 10)  (  1, 17, 12)  (  2,  6, 10)
  0  0.3584E-03  1  0.2009E-01  0  0.7277E-02  0  0.1565E-02  0  0.3535E-03
   (  2,  7, 11)  (  2, 44, 38)  (  2, 44, 38)  (  2, 44, 38)  (  2, 44, 38)
  1 -0.1893E-01  0 -0.5114E-03  1  0.1217E-01  0  0.3630E-03  1 -0.7822E-02
   (  2, 44, 38)  (  2, 44, 38)  (  2, 44, 38)  (  2, 44, 38)  (  2, 44, 38)
  0 -0.2310E-03  1  0.4970E-02  0  0.1588E-03  1 -0.3172E-02  0 -0.1000E-03
   (  2, 44, 38)  (  2, 44, 38)  (  2, 44, 38)  (  2, 44, 38)  (  2, 44, 38)
  1  0.2016E-02  0  0.6569E-04  1 -0.1285E-02  0 -0.4140E-04  1  0.8172E-03
   (  2, 44, 38)  (  2, 44, 38)  (  2, 44, 38)  (  2, 44, 38)  (  2, 44, 38)

 MAXIMUM RESIDUAL FOR EACH ITERATION (1 INDICATES THE FIRST INNER ITERATION):

    RESIDUAL       RESIDUAL       RESIDUAL       RESIDUAL       RESIDUAL    
   LAYER,ROW,COL  LAYER,ROW,COL  LAYER,ROW,COL  LAYER,ROW,COL  LAYER,ROW,COL
 ---------------------------------------------------------------------------
  1  0.6011E-03  0  0.1861E-03  0 -0.4614E-04  0  0.1247E-04  0  0.4644E-05
   (  2, 13, 10)  (  2, 20, 10)  (  1, 17, 12)  (  1, 13, 10)  (  1, 13, 10)
  0 -0.1354E-05  1  0.5853E-05  0 -0.1413E-05  0  0.4088E-06  0 -0.1067E-06
   (  2, 18, 11)  (  2, 21,  9)  (  2, 22, 11)  (  2, 19, 10)  (  2, 22,  6)
  1 -0.4588E-06  0  0.2059E-06  1 -0.3370E-06  0 -0.2011E-06  1  0.2370E-06
   (  2, 12, 18)  (  2, 43, 38)  (  2, 43, 38)  (  2, 43, 38)  (  2, 43, 38)
  0  0.1378E-06  1 -0.1535E-06  0 -0.9427E-07  1 -0.1000E-06  0  0.5997E-07
   (  2, 43, 38)  (  2, 43, 38)  (  2, 43, 38)  (  2, 44, 37)  (  2, 43, 38)
  1  0.6404E-07  0 -0.3906E-07  1 -0.4111E-07  0  0.2469E-07  1  0.2617E-07
   (  2, 44, 37)  (  2, 43, 38)  (  2, 44, 37)  (  2, 43, 38)  (  2, 44, 37)



 OUTPUT CONTROL FOR STRESS PERIOD    2   TIME STEP  101
    SAVE HEAD FOR ALL LAYERS
    SAVE DRAWDOWN FOR ALL LAYERS
    SAVE BUDGET
    PRINT BUDGET
 UBDSV1 SAVING "         STORAGE" ON UNIT   9 AT TIME STEP101, STRESS PERIOD   2
 UBDSV2 SAVING "   CONSTANT HEAD" ON UNIT   9 AT TIME STEP101, STRESS PERIOD   2
 UBDSV1 SAVING "FLOW RIGHT FACE " ON UNIT   9 AT TIME STEP101, STRESS PERIOD   2
 UBDSV1 SAVING "FLOW FRONT FACE " ON UNIT   9 AT TIME STEP101, STRESS PERIOD   2
 UBDSV1 SAVING "FLOW LOWER FACE " ON UNIT   9 AT TIME STEP101, STRESS PERIOD   2
 UBDSV4 SAVING "           WELLS" ON UNIT   9 AT TIME STEP101, STRESS PERIOD   2
 UBDSV4 SAVING "   RIVER LEAKAGE" ON UNIT   9 AT TIME STEP101, STRESS PERIOD   2
 UBDSV3 SAVING "              ET" ON UNIT   9 AT TIME STEP101, STRESS PERIOD   2
 UBDSV4 SAVING " HEAD DEP BOUNDS" ON UNIT   9 AT TIME STEP101, STRESS PERIOD   2
 UBDSV3 SAVING "        RECHARGE" ON UNIT   9 AT TIME STEP101, STRESS PERIOD   2
 SOLVING FOR ZETA FOR LAYER     1 ZONE     2
     2 CALLS TO PCG ROUTINE FOR TIME STEP 101 IN STRESS PERIOD    2
     4 TOTAL ITERATIONS

 MAXIMUM HEAD CHANGE FOR EACH ITERATION (1 INDICATES THE FIRST INNER ITERATION):

    HEAD CHANGE    HEAD CHANGE    HEAD CHANGE    HEAD CHANGE    HEAD CHANGE 
   LAYER,ROW,COL  LAYER,ROW,COL  LAYER,ROW,COL  LAYER,ROW,COL  LAYER,ROW,COL
 ---------------------------------------------------------------------------
  1   18.04      0  0.9702E-02  0  0.1098E-03  1  0.4833E-06
   (  1, 19, 10)  (  1, 13,  8)  (  1, 12,  9)  (  1,  8,  3)

 MAXIMUM RESIDUAL FOR EACH ITERATION (1 INDICATES THE FIRST INNER ITERATION):

    RESIDUAL       RESIDUAL       RESIDUAL       RESIDUAL       RESIDUAL    
   LAYER,ROW,COL  LAYER,ROW,COL  LAYER,ROW,COL  LAYER,ROW,COL  LAYER,ROW,COL
 ---------------------------------------------------------------------------
  1 -0.3025E-05  0 -0.3852E-07  0 -0.1787E-09  1 -0.3615E-11
   (  1, 13,  8)  (  1, 12,  9)  (  1,  8,  3)  (  1,  9,  2)


 SOLVING FOR ZETA FOR LAYER     2 ZONE     2
     2 CALLS TO PCG ROUTINE FOR TIME STEP 101 IN STRESS PERIOD    2
     4 TOTAL ITERATIONS

 MAXIMUM HEAD CHANGE FOR EACH ITERATION (1 INDICATES THE FIRST INNER ITERATION):

    HEAD CHANGE    HEAD CHANGE    HEAD CHANGE    HEAD CHANGE    HEAD CHANGE 
   LAYER,ROW,COL  LAYER,ROW,COL  LAYER,ROW,COL  LAYER,ROW,COL  LAYER,ROW,COL
 ---------------------------------------------------------------------------
  1   8.407      0 -0.2355E-01  0  0.4040E-03  1  0.3630E-05
   (  1, 17, 11)  (  1, 25,  8)  (  1,  9, 11)  (  1, 10, 10)

 MAXIMUM RESIDUAL FOR EACH ITERATION (1 INDICATES THE FIRST INNER ITERATION):

    RESIDUAL       RESIDUAL       RESIDUAL       RESIDUAL       RESIDUAL    
   LAYER,ROW,COL  LAYER,ROW,COL  LAYER,ROW,COL  LAYER,ROW,COL  LAYER,ROW,COL
 ---------------------------------------------------------------------------
  1  0.8844E-05  0 -0.1541E-06  0 -0.1253E-08  1 -0.2792E-10
   (  1, 25,  8)  (  1,  9, 11)  (  1, 10, 10)  (  1,  9, 11)


 UBUDSV SAVING "      ZETASRF  1" ON UNIT170 AT TIME STEP101, STRESS PERIOD    2


                      VOLUMETRIC SWI ZONE BUDGET FOR ENTIRE MODEL
                     AT END OF TIME STEP  101 IN STRESS PERIOD   2
                                      ZONE     1
  -----------------------------------------------------------------------------------

        CUMULATIVE VOLUMES      L**3       RATES FOR THIS TIME STEP      L**3/T
        ------------------                 ------------------------

              IN:                                      IN:
              ---                                      ---
             BOUNDARIES =   835849216.0000            BOUNDARIES =           0.1805
          CONSTANT HEAD =           0.0000         CONSTANT HEAD =           0.0000
            ZONE CHANGE =   215816576.0000           ZONE CHANGE =       4.7060E-02
       ZONE CHG TIP/TOE =    13985088.0000      ZONE CHG TIP/TOE =       1.1278E-02
            ZONE MIXING =           0.0000           ZONE MIXING =           0.0000

               TOTAL IN =  1065650880.0000              TOTAL IN =           0.2389

             OUT:                                     OUT:
             ----                                     ----
             BOUNDARIES =   961357120.0000            BOUNDARIES =           0.2208
          CONSTANT HEAD =           0.0000         CONSTANT HEAD =           0.0000
            ZONE CHANGE =    35519316.0000           ZONE CHANGE =       8.2842E-03
       ZONE CHG TIP/TOE =    11013660.0000      ZONE CHG TIP/TOE =       7.8545E-03
            ZONE MIXING =     1671616.7500           ZONE MIXING =       5.3224E-03

              TOTAL OUT =  1009561728.0000             TOTAL OUT =           0.2422

               IN - OUT =    56089152.0000              IN - OUT =      -3.3542E-03

    PERCENT DISCREPANCY =           5.41     PERCENT DISCREPANCY =          -1.39



                      VOLUMETRIC SWI ZONE BUDGET FOR ENTIRE MODEL
                     AT END OF TIME STEP  101 IN STRESS PERIOD   2
                                      ZONE     2
  -----------------------------------------------------------------------------------

        CUMULATIVE VOLUMES      L**3       RATES FOR THIS TIME STEP      L**3/T
        ------------------                 ------------------------

              IN:                                      IN:
              ---                                      ---
             BOUNDARIES =   160666416.0000            BOUNDARIES =           0.1372
          CONSTANT HEAD =           0.0000         CONSTANT HEAD =           0.0000
            ZONE CHANGE =    29993612.0000           ZONE CHANGE =       6.0574E-03
       ZONE CHG TIP/TOE =    29828904.0000      ZONE CHG TIP/TOE =       1.5942E-02
            ZONE MIXING =     1671616.7500           ZONE MIXING =       5.3224E-03

               TOTAL IN =   222160544.0000              TOTAL IN =           0.1645

             OUT:                                     OUT:
             ----                                     ----
             BOUNDARIES =   138828608.0000            BOUNDARIES =           0.1296
          CONSTANT HEAD =           0.0000         CONSTANT HEAD =           0.0000
            ZONE CHANGE =    72535000.0000           ZONE CHANGE =       2.8207E-02
       ZONE CHG TIP/TOE =     8934215.0000      ZONE CHG TIP/TOE =       8.7740E-03
            ZONE MIXING =           0.0000           ZONE MIXING =           0.0000

              TOTAL OUT =   220297824.0000             TOTAL OUT =           0.1666

               IN - OUT =     1862720.0000              IN - OUT =      -2.0735E-03

    PERCENT DISCREPANCY =           0.84     PERCENT DISCREPANCY =          -1.25


 HEAD WILL BE SAVED ON UNIT   37 AT END OF TIME STEP  101, STRESS PERIOD    2

 DRAWDOWN WILL BE SAVED ON UNIT   38 AT END OF TIME STEP  101, STRESS PERIOD    2
1
  VOLUMETRIC BUDGET FOR ENTIRE MODEL AT END OF TIME STEP  101, STRESS PERIOD   2
  ------------------------------------------------------------------------------

     CUMULATIVE VOLUMES      L**3       RATES FOR THIS TIME STEP      L**3/T
     ------------------                 ------------------------

           IN:                                      IN:
           ---                                      ---
             STORAGE =    98375936.0000               STORAGE =       3.2879E-02
       CONSTANT HEAD =           0.0000         CONSTANT HEAD =           0.0000
               WELLS =           0.0000                 WELLS =           0.0000
       RIVER LEAKAGE =   173087488.0000         RIVER LEAKAGE =       3.4000E-02
                  ET =           0.0000                    ET =           0.0000
     HEAD DEP BOUNDS =   172403920.0000       HEAD DEP BOUNDS =           0.1422
            RECHARGE =   708544640.0000              RECHARGE =           0.1611
          SWIADDTOCH =           0.0000            SWIADDTOCH =           0.0000

            TOTAL IN =  1152411904.0000              TOTAL IN =           0.3702

          OUT:                                     OUT:
          ----                                     ----
             STORAGE =      174515.5000               STORAGE =       2.3300E-04
       CONSTANT HEAD =           0.0000         CONSTANT HEAD =           0.0000
               WELLS =   607478080.0000                 WELLS =           0.3700
       RIVER LEAKAGE =    21630804.0000         RIVER LEAKAGE =           0.0000
                  ET =   166413648.0000                    ET =           0.0000
     HEAD DEP BOUNDS =   356727456.0000       HEAD DEP BOUNDS =           0.0000
            RECHARGE =           0.0000              RECHARGE =           0.0000
          SWIADDTOCH =           0.0000            SWIADDTOCH =           0.0000

           TOTAL OUT =  1152424448.0000             TOTAL OUT =           0.3702

            IN - OUT =      -12544.0000              IN - OUT =       2.9802E-08

 PERCENT DISCREPANCY =          -0.00     PERCENT DISCREPANCY =           0.00






         TIME SUMMARY AT END OF TIME STEP  101 IN STRESS PERIOD    2
                    SECONDS     MINUTES      HOURS       DAYS        YEARS
                    -----------------------------------------------------------
   TIME STEP LENGTH 1.57680E+07 2.62800E+05  4380.0      182.50     0.49966    
 STRESS PERIOD TIME 1.59257E+09 2.65428E+07 4.42381E+05  18433.      50.466    
         TOTAL TIME 4.74617E+09 7.91029E+07 1.31838E+06  54933.      150.40    
1
 
 SOLVING FOR HEAD 

 CELL CONVERSIONS FOR ITER.=  2  LAYER=  1  STEP=102  PERIOD=   2   (ROW,COL)
    DRY( 38, 29)   
    14 CALLS TO PCG ROUTINE FOR TIME STEP 102 IN STRESS PERIOD    2
    33 TOTAL ITERATIONS

 MAXIMUM HEAD CHANGE FOR EACH ITERATION (1 INDICATES THE FIRST INNER ITERATION):

    HEAD CHANGE    HEAD CHANGE    HEAD CHANGE    HEAD CHANGE    HEAD CHANGE 
   LAYER,ROW,COL  LAYER,ROW,COL  LAYER,ROW,COL  LAYER,ROW,COL  LAYER,ROW,COL
 ---------------------------------------------------------------------------
  1  0.3520      0 -0.1063      0  0.2993E-01  0 -0.1133E-01  0 -0.2631E-02
   (  2, 19, 11)  (  2, 20, 11)  (  2,  5, 11)  (  1, 17, 12)  (  2, 21, 12)
  0  0.7422E-03  1 -0.3564E-01  0  0.6237E-02  0  0.1620E-02  0  0.5257E-03
   (  1, 18, 10)  (  2, 38, 29)  (  2, 44, 38)  (  2, 44, 38)  (  2, 44, 38)
  1 -0.1823E-01  0 -0.5613E-03  1  0.1402E-01  0  0.3820E-03  1 -0.1078E-01
   (  2, 44, 38)  (  2, 44, 38)  (  2, 44, 38)  (  2, 44, 38)  (  2, 44, 38)
  0 -0.2742E-03  1  0.8231E-02  0  0.2141E-03  1 -0.6306E-02  0 -0.1608E-03
   (  2, 44, 38)  (  2, 44, 38)  (  2, 44, 38)  (  2, 44, 38)  (  2, 44, 38)
  1  0.4814E-02  0  0.1249E-03  1 -0.3683E-02  0 -0.9472E-04  1  0.2812E-02
   (  2, 44, 38)  (  2, 44, 38)  (  2, 44, 38)  (  2, 44, 38)  (  2, 44, 38)
  0  0.7302E-04  1 -0.2150E-02  0 -0.5559E-04  1  0.1642E-02  0  0.4265E-04
   (  2, 44, 38)  (  2, 44, 38)  (  2, 44, 38)  (  2, 44, 38)  (  2, 44, 38)
  1 -0.1255E-02  0 -0.3255E-04  1  0.9585E-03
   (  2, 44, 38)  (  2, 44, 38)  (  2, 44, 38)

 MAXIMUM RESIDUAL FOR EACH ITERATION (1 INDICATES THE FIRST INNER ITERATION):

    RESIDUAL       RESIDUAL       RESIDUAL       RESIDUAL       RESIDUAL    
   LAYER,ROW,COL  LAYER,ROW,COL  LAYER,ROW,COL  LAYER,ROW,COL  LAYER,ROW,COL
 ---------------------------------------------------------------------------
  1  0.8919E-03  0  0.2173E-03  0  0.9140E-04  0 -0.2831E-04  0 -0.9416E-05
   (  2, 17, 11)  (  1, 17, 12)  (  1, 17, 12)  (  1, 19, 11)  (  1, 19, 11)
  0  0.2675E-05  1  0.2359E-04  0  0.7781E-05  0  0.2119E-05  0  0.4587E-06
   (  2, 19, 11)  (  2, 38, 29)  (  2, 39, 28)  (  2, 37, 30)  (  2, 40, 27)
  1 -0.4938E-06  0  0.2093E-06  1 -0.3711E-06  0 -0.2108E-06  1  0.3019E-06
   (  2, 12, 18)  (  2, 43, 38)  (  2, 43, 38)  (  2, 43, 38)  (  2, 43, 38)
  0  0.1660E-06  1 -0.2346E-06  0 -0.1347E-06  1  0.1810E-06  0  0.1029E-06
   (  2, 43, 38)  (  2, 43, 38)  (  2, 43, 38)  (  2, 43, 38)  (  2, 43, 38)
  1 -0.1389E-06  0 -0.8034E-07  1  0.1063E-06  0  0.6114E-07  1 -0.8133E-07
   (  2, 43, 38)  (  2, 43, 38)  (  2, 43, 38)  (  2, 43, 38)  (  2, 43, 38)
  0 -0.4711E-07  1  0.6211E-07  0  0.3592E-07  1 -0.4753E-07  0 -0.2752E-07
   (  2, 43, 38)  (  2, 43, 38)  (  2, 43, 38)  (  2, 43, 38)  (  2, 43, 38)
  1  0.3628E-07  0  0.2102E-07  1 -0.2774E-07
   (  2, 43, 38)  (  2, 43, 38)  (  2, 43, 38)



 OUTPUT CONTROL FOR STRESS PERIOD    2   TIME STEP  102
    SAVE HEAD FOR ALL LAYERS
    SAVE DRAWDOWN FOR ALL LAYERS
    SAVE BUDGET
    PRINT BUDGET
 UBDSV1 SAVING "         STORAGE" ON UNIT   9 AT TIME STEP102, STRESS PERIOD   2
 UBDSV2 SAVING "   CONSTANT HEAD" ON UNIT   9 AT TIME STEP102, STRESS PERIOD   2
 UBDSV1 SAVING "FLOW RIGHT FACE " ON UNIT   9 AT TIME STEP102, STRESS PERIOD   2
 UBDSV1 SAVING "FLOW FRONT FACE " ON UNIT   9 AT TIME STEP102, STRESS PERIOD   2
 UBDSV1 SAVING "FLOW LOWER FACE " ON UNIT   9 AT TIME STEP102, STRESS PERIOD   2
 UBDSV4 SAVING "           WELLS" ON UNIT   9 AT TIME STEP102, STRESS PERIOD   2
 UBDSV4 SAVING "   RIVER LEAKAGE" ON UNIT   9 AT TIME STEP102, STRESS PERIOD   2
 UBDSV3 SAVING "              ET" ON UNIT   9 AT TIME STEP102, STRESS PERIOD   2
 UBDSV4 SAVING " HEAD DEP BOUNDS" ON UNIT   9 AT TIME STEP102, STRESS PERIOD   2
 UBDSV3 SAVING "        RECHARGE" ON UNIT   9 AT TIME STEP102, STRESS PERIOD   2
 SOLVING FOR ZETA FOR LAYER     1 ZONE     2
     2 CALLS TO PCG ROUTINE FOR TIME STEP 102 IN STRESS PERIOD    2
     4 TOTAL ITERATIONS

 MAXIMUM HEAD CHANGE FOR EACH ITERATION (1 INDICATES THE FIRST INNER ITERATION):

    HEAD CHANGE    HEAD CHANGE    HEAD CHANGE    HEAD CHANGE    HEAD CHANGE 
   LAYER,ROW,COL  LAYER,ROW,COL  LAYER,ROW,COL  LAYER,ROW,COL  LAYER,ROW,COL
 ---------------------------------------------------------------------------
  1   33.31      0  0.6774E-01  0  0.4553E-03  1 -0.1994E-05
   (  1, 20,  9)  (  1, 21,  9)  (  1, 22,  9)  (  1, 26,  6)

 MAXIMUM RESIDUAL FOR EACH ITERATION (1 INDICATES THE FIRST INNER ITERATION):

    RESIDUAL       RESIDUAL       RESIDUAL       RESIDUAL       RESIDUAL    
   LAYER,ROW,COL  LAYER,ROW,COL  LAYER,ROW,COL  LAYER,ROW,COL  LAYER,ROW,COL
 ---------------------------------------------------------------------------
  1 -0.2185E-04  0 -0.1554E-06  0  0.6202E-09  1  0.4522E-11
   (  1, 21,  9)  (  1, 22,  9)  (  1, 26,  6)  (  1, 25,  7)


 SOLVING FOR ZETA FOR LAYER     2 ZONE     2
     2 CALLS TO PCG ROUTINE FOR TIME STEP 102 IN STRESS PERIOD    2
     4 TOTAL ITERATIONS

 MAXIMUM HEAD CHANGE FOR EACH ITERATION (1 INDICATES THE FIRST INNER ITERATION):

    HEAD CHANGE    HEAD CHANGE    HEAD CHANGE    HEAD CHANGE    HEAD CHANGE 
   LAYER,ROW,COL  LAYER,ROW,COL  LAYER,ROW,COL  LAYER,ROW,COL  LAYER,ROW,COL
 ---------------------------------------------------------------------------
  1  -5.673      0  0.5000E-01  0  0.5104E-03  1  0.1137E-04
   (  1, 17, 12)  (  1,  7, 10)  (  1, 28,  6)  (  1, 27,  7)

 MAXIMUM RESIDUAL FOR EACH ITERATION (1 INDICATES THE FIRST INNER ITERATION):

    RESIDUAL       RESIDUAL       RESIDUAL       RESIDUAL       RESIDUAL    
   LAYER,ROW,COL  LAYER,ROW,COL  LAYER,ROW,COL  LAYER,ROW,COL  LAYER,ROW,COL
 ---------------------------------------------------------------------------
  1 -0.1607E-04  0 -0.1876E-06  0 -0.3757E-08  1 -0.1291E-09
   (  1,  7, 10)  (  1, 28,  6)  (  1, 27,  7)  (  1, 28,  6)


 UBUDSV SAVING "      ZETASRF  1" ON UNIT170 AT TIME STEP102, STRESS PERIOD    2


                      VOLUMETRIC SWI ZONE BUDGET FOR ENTIRE MODEL
                     AT END OF TIME STEP  102 IN STRESS PERIOD   2
                                      ZONE     1
  -----------------------------------------------------------------------------------

        CUMULATIVE VOLUMES      L**3       RATES FOR THIS TIME STEP      L**3/T
        ------------------                 ------------------------

              IN:                                      IN:
              ---                                      ---
             BOUNDARIES =   838695168.0000            BOUNDARIES =           0.1805
          CONSTANT HEAD =           0.0000         CONSTANT HEAD =           0.0000
            ZONE CHANGE =   216513248.0000           ZONE CHANGE =       4.4182E-02
       ZONE CHG TIP/TOE =    14138111.0000      ZONE CHG TIP/TOE =       9.7047E-03
            ZONE MIXING =           0.0000           ZONE MIXING =           0.0000

               TOTAL IN =  1069346560.0000              TOTAL IN =           0.2344

             OUT:                                     OUT:
             ----                                     ----
             BOUNDARIES =   965071872.0000            BOUNDARIES =           0.2356
          CONSTANT HEAD =           0.0000         CONSTANT HEAD =           0.0000
            ZONE CHANGE =    35675644.0000           ZONE CHANGE =       9.9144E-03
       ZONE CHG TIP/TOE =    11143723.0000      ZONE CHG TIP/TOE =       8.2485E-03
            ZONE MIXING =     1727573.7500           ZONE MIXING =       3.5488E-03

              TOTAL OUT =  1013618816.0000             TOTAL OUT =           0.2573

               IN - OUT =    55727744.0000              IN - OUT =      -2.2923E-02

    PERCENT DISCREPANCY =           5.35     PERCENT DISCREPANCY =          -9.32



                      VOLUMETRIC SWI ZONE BUDGET FOR ENTIRE MODEL
                     AT END OF TIME STEP  102 IN STRESS PERIOD   2
                                      ZONE     2
  -----------------------------------------------------------------------------------

        CUMULATIVE VOLUMES      L**3       RATES FOR THIS TIME STEP      L**3/T
        ------------------                 ------------------------

              IN:                                      IN:
              ---                                      ---
             BOUNDARIES =   162832672.0000            BOUNDARIES =           0.1374
          CONSTANT HEAD =           0.0000         CONSTANT HEAD =           0.0000
            ZONE CHANGE =    30133800.0000           ZONE CHANGE =       8.8907E-03
       ZONE CHG TIP/TOE =    30263580.0000      ZONE CHG TIP/TOE =       2.7567E-02
            ZONE MIXING =     1727573.7500           ZONE MIXING =       3.5488E-03

               TOTAL IN =   224957632.0000              TOTAL IN =           0.1774

             OUT:                                     OUT:
             ----                                     ----
             BOUNDARIES =   140639008.0000            BOUNDARIES =           0.1148
          CONSTANT HEAD =           0.0000         CONSTANT HEAD =           0.0000
            ZONE CHANGE =    73111976.0000           ZONE CHANGE =       3.6592E-02
       ZONE CHG TIP/TOE =     9067753.0000      ZONE CHG TIP/TOE =       8.4689E-03
            ZONE MIXING =           0.0000           ZONE MIXING =           0.0000

              TOTAL OUT =   222818736.0000             TOTAL OUT =           0.1599

               IN - OUT =     2138896.0000              IN - OUT =       1.7514E-02

    PERCENT DISCREPANCY =           0.96     PERCENT DISCREPANCY =          10.39


 HEAD WILL BE SAVED ON UNIT   37 AT END OF TIME STEP  102, STRESS PERIOD    2

 DRAWDOWN WILL BE SAVED ON UNIT   38 AT END OF TIME STEP  102, STRESS PERIOD    2
1
  VOLUMETRIC BUDGET FOR ENTIRE MODEL AT END OF TIME STEP  102, STRESS PERIOD   2
  ------------------------------------------------------------------------------

     CUMULATIVE VOLUMES      L**3       RATES FOR THIS TIME STEP      L**3/T
     ------------------                 ------------------------

           IN:                                      IN:
           ---                                      ---
             STORAGE =    98892176.0000               STORAGE =       3.2740E-02
       CONSTANT HEAD =           0.0000         CONSTANT HEAD =           0.0000
               WELLS =           0.0000                 WELLS =           0.0000
       RIVER LEAKAGE =   173623600.0000         RIVER LEAKAGE =       3.4000E-02
                  ET =           0.0000                    ET =           0.0000
     HEAD DEP BOUNDS =   174651040.0000       HEAD DEP BOUNDS =           0.1425
            RECHARGE =   711082624.0000              RECHARGE =           0.1610
          SWIADDTOCH =           0.0000            SWIADDTOCH =           0.0000

            TOTAL IN =  1158249472.0000              TOTAL IN =           0.3702

          OUT:                                     OUT:
          ----                                     ----
             STORAGE =      177826.3125               STORAGE =       2.0997E-04
       CONSTANT HEAD =           0.0000         CONSTANT HEAD =           0.0000
               WELLS =   613312256.0000                 WELLS =           0.3700
       RIVER LEAKAGE =    21630804.0000         RIVER LEAKAGE =           0.0000
                  ET =   166413648.0000                    ET =           0.0000
     HEAD DEP BOUNDS =   356727456.0000       HEAD DEP BOUNDS =           0.0000
            RECHARGE =           0.0000              RECHARGE =           0.0000
          SWIADDTOCH =           0.0000            SWIADDTOCH =           0.0000

           TOTAL OUT =  1158262016.0000             TOTAL OUT =           0.3702

            IN - OUT =      -12544.0000              IN - OUT =       2.9802E-08

 PERCENT DISCREPANCY =          -0.00     PERCENT DISCREPANCY =           0.00






         TIME SUMMARY AT END OF TIME STEP  102 IN STRESS PERIOD    2
                    SECONDS     MINUTES      HOURS       DAYS        YEARS
                    -----------------------------------------------------------
   TIME STEP LENGTH 1.57680E+07 2.62800E+05  4380.0      182.50     0.49966    
 STRESS PERIOD TIME 1.60834E+09 2.68056E+07 4.46761E+05  18615.      50.965    
         TOTAL TIME 4.76194E+09 7.93657E+07 1.32276E+06  55115.      150.90    
1
 
 SOLVING FOR HEAD 

 CELL CONVERSIONS FOR ITER.=  2  LAYER=  1  STEP=103  PERIOD=   2   (ROW,COL)
    DRY( 37, 30)   DRY( 38, 30)   
    28 CALLS TO PCG ROUTINE FOR TIME STEP 103 IN STRESS PERIOD    2
    61 TOTAL ITERATIONS

 MAXIMUM HEAD CHANGE FOR EACH ITERATION (1 INDICATES THE FIRST INNER ITERATION):

    HEAD CHANGE    HEAD CHANGE    HEAD CHANGE    HEAD CHANGE    HEAD CHANGE 
   LAYER,ROW,COL  LAYER,ROW,COL  LAYER,ROW,COL  LAYER,ROW,COL  LAYER,ROW,COL
 ---------------------------------------------------------------------------
  1 -0.2175      0 -0.8166E-01  0 -0.1784E-01  0 -0.4376E-02  0 -0.1502E-02
   (  1, 20, 10)  (  2, 21,  8)  (  2, 19,  9)  (  1, 16, 11)  (  2,  5, 11)
  0  0.5491E-03  1 -0.5616E-01  0 -0.7722E-02  0  0.1348E-02  0  0.3877E-03
   (  2,  5, 11)  (  2, 38, 30)  (  2, 36, 31)  (  2, 55, 32)  (  2, 55, 32)
  1 -0.1566E-01  0 -0.6853E-03  1  0.1413E-01  0  0.3879E-03  1 -0.1265E-01
   (  2, 44, 38)  (  2, 44, 38)  (  2, 44, 38)  (  2, 44, 38)  (  2, 44, 38)
  0 -0.2942E-03  1  0.1128E-01  0  0.2566E-03  1 -0.1008E-01  0 -0.2234E-03
   (  2, 44, 38)  (  2, 44, 38)  (  2, 44, 38)  (  2, 44, 38)  (  2, 44, 38)
  1  0.8993E-02  0  0.2009E-03  1 -0.8037E-02  0 -0.1773E-03  1  0.7171E-02
   (  2, 44, 38)  (  2, 44, 38)  (  2, 44, 38)  (  2, 44, 38)  (  2, 44, 38)
  0  0.1597E-03  1 -0.6408E-02  0 -0.1414E-03  1  0.5719E-02  0  0.1271E-03
   (  2, 44, 38)  (  2, 44, 38)  (  2, 44, 38)  (  2, 44, 38)  (  2, 44, 38)
  1 -0.5110E-02  0 -0.1129E-03  1  0.4560E-02  0  0.1013E-03  1 -0.4074E-02
   (  2, 44, 38)  (  2, 44, 38)  (  2, 44, 38)  (  2, 44, 38)  (  2, 44, 38)
  0 -0.9002E-04  1  0.3636E-02  0  0.8075E-04  1 -0.3248E-02  0 -0.7182E-04
   (  2, 44, 38)  (  2, 44, 38)  (  2, 44, 38)  (  2, 44, 38)  (  2, 44, 38)
  1  0.2899E-02  0  0.6435E-04  1 -0.2590E-02  0 -0.5729E-04  1  0.2312E-02
   (  2, 44, 38)  (  2, 44, 38)  (  2, 44, 38)  (  2, 44, 38)  (  2, 44, 38)
  0  0.5130E-04  1 -0.2065E-02  0 -0.4570E-04  1  0.1843E-02  0  0.4089E-04
   (  2, 44, 38)  (  2, 44, 38)  (  2, 44, 38)  (  2, 44, 38)  (  2, 44, 38)
  1 -0.1646E-02  0 -0.3646E-04  1  0.1469E-02  0  0.3260E-04  1 -0.1311E-02
   (  2, 44, 38)  (  2, 44, 38)  (  2, 44, 38)  (  2, 44, 38)  (  2, 44, 38)
  0 -0.2905E-04  1  0.1170E-02  0  0.2596E-04  1 -0.1045E-02  0 -0.2315E-04
   (  2, 44, 38)  (  2, 44, 38)  (  2, 44, 38)  (  2, 44, 38)  (  2, 44, 38)
  1  0.9330E-03
   (  2, 44, 38)

 MAXIMUM RESIDUAL FOR EACH ITERATION (1 INDICATES THE FIRST INNER ITERATION):

    RESIDUAL       RESIDUAL       RESIDUAL       RESIDUAL       RESIDUAL    
   LAYER,ROW,COL  LAYER,ROW,COL  LAYER,ROW,COL  LAYER,ROW,COL  LAYER,ROW,COL
 ---------------------------------------------------------------------------
  1  0.4884E-03  0 -0.1464E-03  0  0.3918E-04  0  0.1440E-04  0  0.5024E-05
   (  2, 21,  8)  (  1, 17, 12)  (  2, 17, 11)  (  1, 19, 11)  (  1, 19, 11)
  0  0.1495E-05  1  0.2777E-04  0  0.7885E-05  0  0.1780E-05  0  0.5867E-06
   (  1, 19, 11)  (  2, 39, 29)  (  2, 39, 29)  (  2, 38, 29)  (  2, 40, 28)
  1 -0.5547E-06  0  0.2139E-06  1 -0.3522E-06  0 -0.2063E-06  1  0.3303E-06
   (  2,  5, 11)  (  2, 11, 19)  (  2, 43, 38)  (  2, 43, 38)  (  2, 43, 38)
  0  0.1863E-06  1 -0.3020E-06  0 -0.1668E-06  1  0.2669E-06  0  0.1490E-06
   (  2, 43, 38)  (  2, 43, 38)  (  2, 43, 38)  (  2, 43, 38)  (  2, 43, 38)
  1 -0.2413E-06  0 -0.1329E-06  1  0.2132E-06  0  0.1191E-06  1 -0.1923E-06
   (  2, 43, 38)  (  2, 43, 38)  (  2, 43, 38)  (  2, 43, 38)  (  2, 43, 38)
  0 -0.1060E-06  1  0.1702E-06  0  0.9503E-07  1 -0.1532E-06  0 -0.8458E-07
   (  2, 43, 38)  (  2, 43, 38)  (  2, 43, 38)  (  2, 43, 38)  (  2, 43, 38)
  1  0.1358E-06  0  0.7581E-07  1 -0.1221E-06  0 -0.6748E-07  1  0.1084E-06
   (  2, 43, 38)  (  2, 43, 38)  (  2, 43, 38)  (  2, 43, 38)  (  2, 43, 38)
  0  0.6042E-07  1 -0.9729E-07  0 -0.5385E-07  1  0.8646E-07  0  0.4818E-07
   (  2, 43, 38)  (  2, 43, 38)  (  2, 43, 38)  (  2, 43, 38)  (  2, 43, 38)
  1 -0.7754E-07  0 -0.4294E-07  1  0.6899E-07  0  0.3842E-07  1 -0.6181E-07
   (  2, 43, 38)  (  2, 43, 38)  (  2, 43, 38)  (  2, 43, 38)  (  2, 43, 38)
  0 -0.3426E-07  1  0.5502E-07  0  0.3063E-07  1 -0.4927E-07  0 -0.2731E-07
   (  2, 43, 38)  (  2, 43, 38)  (  2, 43, 38)  (  2, 43, 38)  (  2, 43, 38)
  1  0.4389E-07  0  0.2443E-07  1 -0.3927E-07  0 -0.2178E-07  1  0.3497E-07
   (  2, 43, 38)  (  2, 43, 38)  (  2, 43, 38)  (  2, 43, 38)  (  2, 43, 38)
  0  0.1946E-07  1 -0.3127E-07  0 -0.1735E-07  1  0.2787E-07  0  0.1550E-07
   (  2, 43, 38)  (  2, 43, 38)  (  2, 43, 38)  (  2, 43, 38)  (  2, 43, 38)
  1 -0.2492E-07
   (  2, 43, 38)



 OUTPUT CONTROL FOR STRESS PERIOD    2   TIME STEP  103
    SAVE HEAD FOR ALL LAYERS
    SAVE DRAWDOWN FOR ALL LAYERS
    SAVE BUDGET
    PRINT BUDGET
 UBDSV1 SAVING "         STORAGE" ON UNIT   9 AT TIME STEP103, STRESS PERIOD   2
 UBDSV2 SAVING "   CONSTANT HEAD" ON UNIT   9 AT TIME STEP103, STRESS PERIOD   2
 UBDSV1 SAVING "FLOW RIGHT FACE " ON UNIT   9 AT TIME STEP103, STRESS PERIOD   2
 UBDSV1 SAVING "FLOW FRONT FACE " ON UNIT   9 AT TIME STEP103, STRESS PERIOD   2
 UBDSV1 SAVING "FLOW LOWER FACE " ON UNIT   9 AT TIME STEP103, STRESS PERIOD   2
 UBDSV4 SAVING "           WELLS" ON UNIT   9 AT TIME STEP103, STRESS PERIOD   2
 UBDSV4 SAVING "   RIVER LEAKAGE" ON UNIT   9 AT TIME STEP103, STRESS PERIOD   2
 UBDSV3 SAVING "              ET" ON UNIT   9 AT TIME STEP103, STRESS PERIOD   2
 UBDSV4 SAVING " HEAD DEP BOUNDS" ON UNIT   9 AT TIME STEP103, STRESS PERIOD   2
 UBDSV3 SAVING "        RECHARGE" ON UNIT   9 AT TIME STEP103, STRESS PERIOD   2
 SOLVING FOR ZETA FOR LAYER     1 ZONE     2
     2 CALLS TO PCG ROUTINE FOR TIME STEP 103 IN STRESS PERIOD    2
     5 TOTAL ITERATIONS

 MAXIMUM HEAD CHANGE FOR EACH ITERATION (1 INDICATES THE FIRST INNER ITERATION):

    HEAD CHANGE    HEAD CHANGE    HEAD CHANGE    HEAD CHANGE    HEAD CHANGE 
   LAYER,ROW,COL  LAYER,ROW,COL  LAYER,ROW,COL  LAYER,ROW,COL  LAYER,ROW,COL
 ---------------------------------------------------------------------------
  1   33.41      0  0.2413      0  0.1840E-02  0  0.1540E-04  1  0.7182E-06
   (  1, 18, 10)  (  1, 19,  9)  (  1, 20,  6)  (  1, 19,  7)  (  1, 19,  8)

 MAXIMUM RESIDUAL FOR EACH ITERATION (1 INDICATES THE FIRST INNER ITERATION):

    RESIDUAL       RESIDUAL       RESIDUAL       RESIDUAL       RESIDUAL    
   LAYER,ROW,COL  LAYER,ROW,COL  LAYER,ROW,COL  LAYER,ROW,COL  LAYER,ROW,COL
 ---------------------------------------------------------------------------
  1 -0.6974E-04  0 -0.5624E-06  0 -0.5772E-08  0 -0.3860E-10  1 -0.2518E-11
   (  1, 19,  9)  (  1, 20,  6)  (  1, 19,  7)  (  1, 20,  6)  (  1, 17,  9)


 SOLVING FOR ZETA FOR LAYER     2 ZONE     2
     2 CALLS TO PCG ROUTINE FOR TIME STEP 103 IN STRESS PERIOD    2
     4 TOTAL ITERATIONS

 MAXIMUM HEAD CHANGE FOR EACH ITERATION (1 INDICATES THE FIRST INNER ITERATION):

    HEAD CHANGE    HEAD CHANGE    HEAD CHANGE    HEAD CHANGE    HEAD CHANGE 
   LAYER,ROW,COL  LAYER,ROW,COL  LAYER,ROW,COL  LAYER,ROW,COL  LAYER,ROW,COL
 ---------------------------------------------------------------------------
  1   8.064      0  0.1103      0 -0.4374E-03  1  0.3697E-05
   (  1, 17, 11)  (  1, 16, 12)  (  1, 18, 11)  (  1, 29,  5)

 MAXIMUM RESIDUAL FOR EACH ITERATION (1 INDICATES THE FIRST INNER ITERATION):

    RESIDUAL       RESIDUAL       RESIDUAL       RESIDUAL       RESIDUAL    
   LAYER,ROW,COL  LAYER,ROW,COL  LAYER,ROW,COL  LAYER,ROW,COL  LAYER,ROW,COL
 ---------------------------------------------------------------------------
  1 -0.3097E-04  0  0.2017E-06  0 -0.1337E-08  1 -0.2584E-10
   (  1, 16, 12)  (  1, 18, 11)  (  1, 29,  5)  (  1, 30,  4)


 UBUDSV SAVING "      ZETASRF  1" ON UNIT170 AT TIME STEP103, STRESS PERIOD    2


                      VOLUMETRIC SWI ZONE BUDGET FOR ENTIRE MODEL
                     AT END OF TIME STEP  103 IN STRESS PERIOD   2
                                      ZONE     1
  -----------------------------------------------------------------------------------

        CUMULATIVE VOLUMES      L**3       RATES FOR THIS TIME STEP      L**3/T
        ------------------                 ------------------------

              IN:                                      IN:
              ---                                      ---
             BOUNDARIES =   841537856.0000            BOUNDARIES =           0.1803
          CONSTANT HEAD =           0.0000         CONSTANT HEAD =           0.0000
            ZONE CHANGE =   217210160.0000           ZONE CHANGE =       4.4198E-02
       ZONE CHG TIP/TOE =    14190294.0000      ZONE CHG TIP/TOE =       3.3094E-03
            ZONE MIXING =           0.0000           ZONE MIXING =           0.0000

               TOTAL IN =  1072938304.0000              TOTAL IN =           0.2278

             OUT:                                     OUT:
             ----                                     ----
             BOUNDARIES =   969469184.0000            BOUNDARIES =           0.2789
          CONSTANT HEAD =           0.0000         CONSTANT HEAD =           0.0000
            ZONE CHANGE =    35826532.0000           ZONE CHANGE =       9.5693E-03
       ZONE CHG TIP/TOE =    11178745.0000      ZONE CHG TIP/TOE =       2.2211E-03
            ZONE MIXING =     1814221.3750           ZONE MIXING =       5.4952E-03

              TOTAL OUT =  1018288704.0000             TOTAL OUT =           0.2962

               IN - OUT =    54649600.0000              IN - OUT =      -6.8374E-02

    PERCENT DISCREPANCY =           5.23     PERCENT DISCREPANCY =         -26.10



                      VOLUMETRIC SWI ZONE BUDGET FOR ENTIRE MODEL
                     AT END OF TIME STEP  103 IN STRESS PERIOD   2
                                      ZONE     2
  -----------------------------------------------------------------------------------

        CUMULATIVE VOLUMES      L**3       RATES FOR THIS TIME STEP      L**3/T
        ------------------                 ------------------------

              IN:                                      IN:
              ---                                      ---
             BOUNDARIES =   165006976.0000            BOUNDARIES =           0.1379
          CONSTANT HEAD =           0.0000         CONSTANT HEAD =           0.0000
            ZONE CHANGE =    30257512.0000           ZONE CHANGE =       7.8457E-03
       ZONE CHG TIP/TOE =    31300628.0000      ZONE CHG TIP/TOE =       6.5769E-02
            ZONE MIXING =     1814221.3750           ZONE MIXING =       5.4952E-03

               TOTAL IN =   228379328.0000              TOTAL IN =           0.2170

             OUT:                                     OUT:
             ----                                     ----
             BOUNDARIES =   141766848.0000            BOUNDARIES =       7.1527E-02
          CONSTANT HEAD =           0.0000         CONSTANT HEAD =           0.0000
            ZONE CHANGE =    74395480.0000           ZONE CHANGE =       8.1399E-02
       ZONE CHG TIP/TOE =     9084505.0000      ZONE CHG TIP/TOE =       1.0624E-03
            ZONE MIXING =           0.0000           ZONE MIXING =           0.0000

              TOTAL OUT =   225246832.0000             TOTAL OUT =           0.1540

               IN - OUT =     3132496.0000              IN - OUT =       6.3015E-02

    PERCENT DISCREPANCY =           1.38     PERCENT DISCREPANCY =          33.97


 HEAD WILL BE SAVED ON UNIT   37 AT END OF TIME STEP  103, STRESS PERIOD    2

 DRAWDOWN WILL BE SAVED ON UNIT   38 AT END OF TIME STEP  103, STRESS PERIOD    2
1
  VOLUMETRIC BUDGET FOR ENTIRE MODEL AT END OF TIME STEP  103, STRESS PERIOD   2
  ------------------------------------------------------------------------------

     CUMULATIVE VOLUMES      L**3       RATES FOR THIS TIME STEP      L**3/T
     ------------------                 ------------------------

           IN:                                      IN:
           ---                                      ---
             STORAGE =    99402320.0000               STORAGE =       3.2353E-02
       CONSTANT HEAD =           0.0000         CONSTANT HEAD =           0.0000
               WELLS =           0.0000                 WELLS =           0.0000
       RIVER LEAKAGE =   174159712.0000         RIVER LEAKAGE =       3.4000E-02
                  ET =           0.0000                    ET =           0.0000
     HEAD DEP BOUNDS =   176908896.0000       HEAD DEP BOUNDS =           0.1432
            RECHARGE =   713614656.0000              RECHARGE =           0.1606
          SWIADDTOCH =           0.0000            SWIADDTOCH =           0.0000

            TOTAL IN =  1164085632.0000              TOTAL IN =           0.3701

          OUT:                                     OUT:
          ----                                     ----
             STORAGE =      179783.9375               STORAGE =       1.2415E-04
       CONSTANT HEAD =           0.0000         CONSTANT HEAD =           0.0000
               WELLS =   619146432.0000                 WELLS =           0.3700
       RIVER LEAKAGE =    21630804.0000         RIVER LEAKAGE =           0.0000
                  ET =   166413648.0000                    ET =           0.0000
     HEAD DEP BOUNDS =   356727456.0000       HEAD DEP BOUNDS =           0.0000
            RECHARGE =           0.0000              RECHARGE =           0.0000
          SWIADDTOCH =           0.0000            SWIADDTOCH =           0.0000

           TOTAL OUT =  1164098048.0000             TOTAL OUT =           0.3701

            IN - OUT =      -12416.0000              IN - OUT =           0.0000

 PERCENT DISCREPANCY =          -0.00     PERCENT DISCREPANCY =           0.00






         TIME SUMMARY AT END OF TIME STEP  103 IN STRESS PERIOD    2
                    SECONDS     MINUTES      HOURS       DAYS        YEARS
                    -----------------------------------------------------------
   TIME STEP LENGTH 1.57680E+07 2.62800E+05  4380.0      182.50     0.49966    
 STRESS PERIOD TIME 1.62411E+09 2.70684E+07 4.51141E+05  18798.      51.465    
         TOTAL TIME 4.77771E+09 7.96285E+07 1.32714E+06  55298.      151.40    
1
 
 SOLVING FOR HEAD 

 CELL CONVERSIONS FOR ITER.=  2  LAYER=  2  STEP=104  PERIOD=   2   (ROW,COL)
    DRY(  9, 32)   DRY( 44, 38)   
     7 CALLS TO PCG ROUTINE FOR TIME STEP 104 IN STRESS PERIOD    2
    19 TOTAL ITERATIONS

 MAXIMUM HEAD CHANGE FOR EACH ITERATION (1 INDICATES THE FIRST INNER ITERATION):

    HEAD CHANGE    HEAD CHANGE    HEAD CHANGE    HEAD CHANGE    HEAD CHANGE 
   LAYER,ROW,COL  LAYER,ROW,COL  LAYER,ROW,COL  LAYER,ROW,COL  LAYER,ROW,COL
 ---------------------------------------------------------------------------
  1 -0.3163      0 -0.1041      0 -0.2411E-01  0 -0.3865E-02  0 -0.1304E-02
   (  2, 17, 11)  (  1, 16, 12)  (  1, 19, 12)  (  2, 13,  9)  (  2,  6, 10)
  0 -0.4198E-03  1  0.1109E-01  0  0.5354E-02  0  0.1421E-02  0  0.3769E-03
   (  2,  5, 13)  (  2, 55, 32)  (  2, 55, 32)  (  2, 55, 32)  (  2, 55, 32)
  1 -0.8819E-02  0 -0.5187E-03  1  0.4352E-02  0  0.2179E-03  1 -0.2152E-02
   (  2, 55, 32)  (  2, 55, 32)  (  2, 55, 32)  (  2, 55, 32)  (  2, 55, 32)
  0 -0.8055E-04  1  0.1170E-02  0  0.4295E-04  1 -0.6959E-03
   (  2, 55, 32)  (  2, 52, 38)  (  2, 52, 38)  (  2, 52, 38)

 MAXIMUM RESIDUAL FOR EACH ITERATION (1 INDICATES THE FIRST INNER ITERATION):

    RESIDUAL       RESIDUAL       RESIDUAL       RESIDUAL       RESIDUAL    
   LAYER,ROW,COL  LAYER,ROW,COL  LAYER,ROW,COL  LAYER,ROW,COL  LAYER,ROW,COL
 ---------------------------------------------------------------------------
  1  0.4922E-03  0 -0.1534E-03  0  0.4419E-04  0  0.1198E-04  0 -0.4646E-05
   (  1, 17, 12)  (  2, 17, 11)  (  2, 13,  9)  (  1, 18, 11)  (  1, 17, 12)
  0 -0.1600E-05  1  0.4620E-05  0 -0.1638E-05  0  0.5196E-06  0 -0.1478E-06
   (  1, 17, 12)  (  2, 20,  7)  (  2, 17, 11)  (  2, 17, 10)  (  2, 19,  7)
  1 -0.5375E-06  0  0.1749E-06  1  0.2155E-06  0  0.9820E-07  1 -0.8492E-07
   (  2, 12, 18)  (  2, 11, 19)  (  2, 12, 18)  (  2, 12, 18)  (  2, 53, 36)
  0 -0.5307E-07  1  0.5078E-07  0  0.3272E-07  1 -0.3043E-07
   (  2, 53, 36)  (  2, 53, 36)  (  2, 53, 36)  (  2, 53, 36)



 OUTPUT CONTROL FOR STRESS PERIOD    2   TIME STEP  104
    SAVE HEAD FOR ALL LAYERS
    SAVE DRAWDOWN FOR ALL LAYERS
    SAVE BUDGET
    PRINT BUDGET
 UBDSV1 SAVING "         STORAGE" ON UNIT   9 AT TIME STEP104, STRESS PERIOD   2
 UBDSV2 SAVING "   CONSTANT HEAD" ON UNIT   9 AT TIME STEP104, STRESS PERIOD   2
 UBDSV1 SAVING "FLOW RIGHT FACE " ON UNIT   9 AT TIME STEP104, STRESS PERIOD   2
 UBDSV1 SAVING "FLOW FRONT FACE " ON UNIT   9 AT TIME STEP104, STRESS PERIOD   2
 UBDSV1 SAVING "FLOW LOWER FACE " ON UNIT   9 AT TIME STEP104, STRESS PERIOD   2
 UBDSV4 SAVING "           WELLS" ON UNIT   9 AT TIME STEP104, STRESS PERIOD   2
 UBDSV4 SAVING "   RIVER LEAKAGE" ON UNIT   9 AT TIME STEP104, STRESS PERIOD   2
 UBDSV3 SAVING "              ET" ON UNIT   9 AT TIME STEP104, STRESS PERIOD   2
 UBDSV4 SAVING " HEAD DEP BOUNDS" ON UNIT   9 AT TIME STEP104, STRESS PERIOD   2
 UBDSV3 SAVING "        RECHARGE" ON UNIT   9 AT TIME STEP104, STRESS PERIOD   2
 SOLVING FOR ZETA FOR LAYER     1 ZONE     2
     2 CALLS TO PCG ROUTINE FOR TIME STEP 104 IN STRESS PERIOD    2
     4 TOTAL ITERATIONS

 MAXIMUM HEAD CHANGE FOR EACH ITERATION (1 INDICATES THE FIRST INNER ITERATION):

    HEAD CHANGE    HEAD CHANGE    HEAD CHANGE    HEAD CHANGE    HEAD CHANGE 
   LAYER,ROW,COL  LAYER,ROW,COL  LAYER,ROW,COL  LAYER,ROW,COL  LAYER,ROW,COL
 ---------------------------------------------------------------------------
  1   11.47      0 -0.9731E-02  0 -0.8775E-04  1  0.7115E-06
   (  1, 18, 11)  (  1, 13, 11)  (  1, 23,  5)  (  1, 13, 11)

 MAXIMUM RESIDUAL FOR EACH ITERATION (1 INDICATES THE FIRST INNER ITERATION):

    RESIDUAL       RESIDUAL       RESIDUAL       RESIDUAL       RESIDUAL    
   LAYER,ROW,COL  LAYER,ROW,COL  LAYER,ROW,COL  LAYER,ROW,COL  LAYER,ROW,COL
 ---------------------------------------------------------------------------
  1  0.2646E-05  0  0.2583E-07  0 -0.2009E-09  1 -0.3989E-11
   (  1, 13, 11)  (  1, 23,  5)  (  1, 13, 11)  (  1,  9,  2)


 SOLVING FOR ZETA FOR LAYER     2 ZONE     2
     2 CALLS TO PCG ROUTINE FOR TIME STEP 104 IN STRESS PERIOD    2
     4 TOTAL ITERATIONS

 MAXIMUM HEAD CHANGE FOR EACH ITERATION (1 INDICATES THE FIRST INNER ITERATION):

    HEAD CHANGE    HEAD CHANGE    HEAD CHANGE    HEAD CHANGE    HEAD CHANGE 
   LAYER,ROW,COL  LAYER,ROW,COL  LAYER,ROW,COL  LAYER,ROW,COL  LAYER,ROW,COL
 ---------------------------------------------------------------------------
  1  -6.905      0  0.5057E-01  0  0.5042E-03  1  0.1142E-04
   (  1, 17, 12)  (  1,  7, 10)  (  1, 28,  6)  (  1, 27,  7)

 MAXIMUM RESIDUAL FOR EACH ITERATION (1 INDICATES THE FIRST INNER ITERATION):

    RESIDUAL       RESIDUAL       RESIDUAL       RESIDUAL       RESIDUAL    
   LAYER,ROW,COL  LAYER,ROW,COL  LAYER,ROW,COL  LAYER,ROW,COL  LAYER,ROW,COL
 ---------------------------------------------------------------------------
  1 -0.1634E-04  0 -0.1861E-06  0 -0.3803E-08  1 -0.1251E-09
   (  1,  7, 10)  (  1, 28,  6)  (  1, 27,  7)  (  1, 28,  6)


 UBUDSV SAVING "      ZETASRF  1" ON UNIT170 AT TIME STEP104, STRESS PERIOD    2


                      VOLUMETRIC SWI ZONE BUDGET FOR ENTIRE MODEL
                     AT END OF TIME STEP  104 IN STRESS PERIOD   2
                                      ZONE     1
  -----------------------------------------------------------------------------------

        CUMULATIVE VOLUMES      L**3       RATES FOR THIS TIME STEP      L**3/T
        ------------------                 ------------------------

              IN:                                      IN:
              ---                                      ---
             BOUNDARIES =   844379840.0000            BOUNDARIES =           0.1802
          CONSTANT HEAD =           0.0000         CONSTANT HEAD =           0.0000
            ZONE CHANGE =   217809392.0000           ZONE CHANGE =       3.8003E-02
       ZONE CHG TIP/TOE =    14309095.0000      ZONE CHG TIP/TOE =       7.5343E-03
            ZONE MIXING =           0.0000           ZONE MIXING =           0.0000

               TOTAL IN =  1076498304.0000              TOTAL IN =           0.2258

             OUT:                                     OUT:
             ----                                     ----
             BOUNDARIES =   972798784.0000            BOUNDARIES =           0.2112
          CONSTANT HEAD =           0.0000         CONSTANT HEAD =           0.0000
            ZONE CHANGE =    36015868.0000           ZONE CHANGE =       1.2008E-02
       ZONE CHG TIP/TOE =    11266745.0000      ZONE CHG TIP/TOE =       5.5809E-03
            ZONE MIXING =     1814221.3750           ZONE MIXING =           0.0000

              TOTAL OUT =  1021895616.0000             TOTAL OUT =           0.2287

               IN - OUT =    54602688.0000              IN - OUT =      -2.9732E-03

    PERCENT DISCREPANCY =           5.20     PERCENT DISCREPANCY =          -1.31



                      VOLUMETRIC SWI ZONE BUDGET FOR ENTIRE MODEL
                     AT END OF TIME STEP  104 IN STRESS PERIOD   2
                                      ZONE     2
  -----------------------------------------------------------------------------------

        CUMULATIVE VOLUMES      L**3       RATES FOR THIS TIME STEP      L**3/T
        ------------------                 ------------------------

              IN:                                      IN:
              ---                                      ---
             BOUNDARIES =   167191792.0000            BOUNDARIES =           0.1386
          CONSTANT HEAD =           0.0000         CONSTANT HEAD =           0.0000
            ZONE CHANGE =    30394882.0000           ZONE CHANGE =       8.7120E-03
       ZONE CHG TIP/TOE =    31444970.0000      ZONE CHG TIP/TOE =       9.1541E-03
            ZONE MIXING =     1814221.3750           ZONE MIXING =           0.0000

               TOTAL IN =   230845856.0000              TOTAL IN =           0.1564

             OUT:                                     OUT:
             ----                                     ----
             BOUNDARIES =   143962432.0000            BOUNDARIES =           0.1392
          CONSTANT HEAD =           0.0000         CONSTANT HEAD =           0.0000
            ZONE CHANGE =    74645376.0000           ZONE CHANGE =       1.5848E-02
       ZONE CHG TIP/TOE =     9141528.0000      ZONE CHG TIP/TOE =       3.6164E-03
            ZONE MIXING =           0.0000           ZONE MIXING =           0.0000

              TOTAL OUT =   227749344.0000             TOTAL OUT =           0.1587

               IN - OUT =     3096512.0000              IN - OUT =      -2.2816E-03

    PERCENT DISCREPANCY =           1.35     PERCENT DISCREPANCY =          -1.45


 HEAD WILL BE SAVED ON UNIT   37 AT END OF TIME STEP  104, STRESS PERIOD    2

 DRAWDOWN WILL BE SAVED ON UNIT   38 AT END OF TIME STEP  104, STRESS PERIOD    2
1
  VOLUMETRIC BUDGET FOR ENTIRE MODEL AT END OF TIME STEP  104, STRESS PERIOD   2
  ------------------------------------------------------------------------------

     CUMULATIVE VOLUMES      L**3       RATES FOR THIS TIME STEP      L**3/T
     ------------------                 ------------------------

           IN:                                      IN:
           ---                                      ---
             STORAGE =    99903640.0000               STORAGE =       3.1793E-02
       CONSTANT HEAD =           0.0000         CONSTANT HEAD =           0.0000
               WELLS =           0.0000                 WELLS =           0.0000
       RIVER LEAKAGE =   174695824.0000         RIVER LEAKAGE =       3.4000E-02
                  ET =           0.0000                    ET =           0.0000
     HEAD DEP BOUNDS =   179176592.0000       HEAD DEP BOUNDS =           0.1438
            RECHARGE =   716146688.0000              RECHARGE =           0.1606
          SWIADDTOCH =           0.0000            SWIADDTOCH =           0.0000

            TOTAL IN =  1169922816.0000              TOTAL IN =           0.3702

          OUT:                                     OUT:
          ----                                     ----
             STORAGE =      182747.7969               STORAGE =       1.8797E-04
       CONSTANT HEAD =           0.0000         CONSTANT HEAD =           0.0000
               WELLS =   624980608.0000                 WELLS =           0.3700
       RIVER LEAKAGE =    21630804.0000         RIVER LEAKAGE =           0.0000
                  ET =   166413648.0000                    ET =           0.0000
     HEAD DEP BOUNDS =   356727456.0000       HEAD DEP BOUNDS =           0.0000
            RECHARGE =           0.0000              RECHARGE =           0.0000
          SWIADDTOCH =           0.0000            SWIADDTOCH =           0.0000

           TOTAL OUT =  1169935232.0000             TOTAL OUT =           0.3702

            IN - OUT =      -12416.0000              IN - OUT =       2.9802E-08

 PERCENT DISCREPANCY =          -0.00     PERCENT DISCREPANCY =           0.00






         TIME SUMMARY AT END OF TIME STEP  104 IN STRESS PERIOD    2
                    SECONDS     MINUTES      HOURS       DAYS        YEARS
                    -----------------------------------------------------------
   TIME STEP LENGTH 1.57680E+07 2.62800E+05  4380.0      182.50     0.49966    
 STRESS PERIOD TIME 1.63987E+09 2.73312E+07 4.55521E+05  18980.      51.964    
         TOTAL TIME 4.79348E+09 7.98913E+07 1.33152E+06  55480.      151.90    
1
 
 SOLVING FOR HEAD 

 CELL CONVERSIONS FOR ITER.=  2  LAYER=  1  STEP=105  PERIOD=   2   (ROW,COL)
    DRY( 19, 33)   DRY( 42, 23)   
     7 CALLS TO PCG ROUTINE FOR TIME STEP 105 IN STRESS PERIOD    2
    19 TOTAL ITERATIONS

 MAXIMUM HEAD CHANGE FOR EACH ITERATION (1 INDICATES THE FIRST INNER ITERATION):

    HEAD CHANGE    HEAD CHANGE    HEAD CHANGE    HEAD CHANGE    HEAD CHANGE 
   LAYER,ROW,COL  LAYER,ROW,COL  LAYER,ROW,COL  LAYER,ROW,COL  LAYER,ROW,COL
 ---------------------------------------------------------------------------
  1  0.3514      0 -0.1221      0 -0.3118E-01  0 -0.5965E-02  0  0.2012E-02
   (  2, 18, 11)  (  1, 19, 11)  (  1, 16, 11)  (  2, 15, 12)  (  2,  5, 10)
  0 -0.6369E-03  1 -0.3651E-01  0 -0.4832E-02  0 -0.1285E-02  0 -0.3620E-03
   (  2,  6, 12)  (  2, 42, 23)  (  2, 44, 20)  (  2, 43, 22)  (  2, 43, 22)
  1 -0.7787E-02  0 -0.8315E-03  1  0.4438E-02  0  0.3085E-03  1 -0.2551E-02
   (  2, 55, 32)  (  2, 55, 32)  (  2, 55, 32)  (  2, 55, 32)  (  2, 55, 32)
  0 -0.1043E-03  1  0.1444E-02  0  0.4855E-04  1 -0.8182E-03
   (  2, 55, 32)  (  2, 55, 32)  (  2, 55, 32)  (  2, 55, 32)

 MAXIMUM RESIDUAL FOR EACH ITERATION (1 INDICATES THE FIRST INNER ITERATION):

    RESIDUAL       RESIDUAL       RESIDUAL       RESIDUAL       RESIDUAL    
   LAYER,ROW,COL  LAYER,ROW,COL  LAYER,ROW,COL  LAYER,ROW,COL  LAYER,ROW,COL
 ---------------------------------------------------------------------------
  1 -0.6828E-03  0  0.3021E-03  0 -0.5484E-04  0 -0.2479E-04  0  0.7264E-05
   (  2, 16, 11)  (  2, 17, 11)  (  1, 19, 11)  (  1, 19, 11)  (  2, 19, 11)
  0 -0.2427E-05  1  0.2744E-04  0  0.8885E-05  0  0.2484E-05  0 -0.5568E-06
   (  2, 15, 12)  (  2, 42, 23)  (  2, 41, 24)  (  2, 43, 22)  (  1, 20, 32)
  1 -0.5066E-06  0 -0.2407E-06  1  0.2804E-06  0  0.1293E-06  1  0.1146E-06
   (  2, 12, 18)  (  2, 12, 18)  (  2, 12, 18)  (  2, 12, 18)  (  2,  5, 11)
  0 -0.4921E-07  1  0.6672E-07  0  0.3219E-07  1 -0.3314E-07
   (  2, 12, 18)  (  2,  5, 11)  (  2, 53, 36)  (  2, 53, 36)



 OUTPUT CONTROL FOR STRESS PERIOD    2   TIME STEP  105
    SAVE HEAD FOR ALL LAYERS
    SAVE DRAWDOWN FOR ALL LAYERS
    SAVE BUDGET
    PRINT BUDGET
 UBDSV1 SAVING "         STORAGE" ON UNIT   9 AT TIME STEP105, STRESS PERIOD   2
 UBDSV2 SAVING "   CONSTANT HEAD" ON UNIT   9 AT TIME STEP105, STRESS PERIOD   2
 UBDSV1 SAVING "FLOW RIGHT FACE " ON UNIT   9 AT TIME STEP105, STRESS PERIOD   2
 UBDSV1 SAVING "FLOW FRONT FACE " ON UNIT   9 AT TIME STEP105, STRESS PERIOD   2
 UBDSV1 SAVING "FLOW LOWER FACE " ON UNIT   9 AT TIME STEP105, STRESS PERIOD   2
 UBDSV4 SAVING "           WELLS" ON UNIT   9 AT TIME STEP105, STRESS PERIOD   2
 UBDSV4 SAVING "   RIVER LEAKAGE" ON UNIT   9 AT TIME STEP105, STRESS PERIOD   2
 UBDSV3 SAVING "              ET" ON UNIT   9 AT TIME STEP105, STRESS PERIOD   2
 UBDSV4 SAVING " HEAD DEP BOUNDS" ON UNIT   9 AT TIME STEP105, STRESS PERIOD   2
 UBDSV3 SAVING "        RECHARGE" ON UNIT   9 AT TIME STEP105, STRESS PERIOD   2
 SOLVING FOR ZETA FOR LAYER     1 ZONE     2
     2 CALLS TO PCG ROUTINE FOR TIME STEP 105 IN STRESS PERIOD    2
     4 TOTAL ITERATIONS

 MAXIMUM HEAD CHANGE FOR EACH ITERATION (1 INDICATES THE FIRST INNER ITERATION):

    HEAD CHANGE    HEAD CHANGE    HEAD CHANGE    HEAD CHANGE    HEAD CHANGE 
   LAYER,ROW,COL  LAYER,ROW,COL  LAYER,ROW,COL  LAYER,ROW,COL  LAYER,ROW,COL
 ---------------------------------------------------------------------------
  1   11.26      0 -0.1687E-01  0 -0.9597E-04  1  0.6094E-06
   (  1, 20, 10)  (  1, 13,  9)  (  1, 23,  5)  (  1, 21, 10)

 MAXIMUM RESIDUAL FOR EACH ITERATION (1 INDICATES THE FIRST INNER ITERATION):

    RESIDUAL       RESIDUAL       RESIDUAL       RESIDUAL       RESIDUAL    
   LAYER,ROW,COL  LAYER,ROW,COL  LAYER,ROW,COL  LAYER,ROW,COL  LAYER,ROW,COL
 ---------------------------------------------------------------------------
  1  0.4650E-05  0  0.2825E-07  0 -0.2071E-09  1 -0.4317E-11
   (  1, 13,  9)  (  1, 23,  5)  (  1,  8,  3)  (  1,  9,  2)


 SOLVING FOR ZETA FOR LAYER     2 ZONE     2
     2 CALLS TO PCG ROUTINE FOR TIME STEP 105 IN STRESS PERIOD    2
     4 TOTAL ITERATIONS

 MAXIMUM HEAD CHANGE FOR EACH ITERATION (1 INDICATES THE FIRST INNER ITERATION):

    HEAD CHANGE    HEAD CHANGE    HEAD CHANGE    HEAD CHANGE    HEAD CHANGE 
   LAYER,ROW,COL  LAYER,ROW,COL  LAYER,ROW,COL  LAYER,ROW,COL  LAYER,ROW,COL
 ---------------------------------------------------------------------------
  1   8.417      0  0.4819E-01  0  0.6131E-03  1  0.8571E-05
   (  1, 17, 11)  (  1,  7, 10)  (  1, 10, 10)  (  1,  9, 11)

 MAXIMUM RESIDUAL FOR EACH ITERATION (1 INDICATES THE FIRST INNER ITERATION):

    RESIDUAL       RESIDUAL       RESIDUAL       RESIDUAL       RESIDUAL    
   LAYER,ROW,COL  LAYER,ROW,COL  LAYER,ROW,COL  LAYER,ROW,COL  LAYER,ROW,COL
 ---------------------------------------------------------------------------
  1 -0.1554E-04  0 -0.2061E-06  0 -0.3559E-08  1 -0.5908E-10
   (  1,  7, 10)  (  1, 10, 10)  (  1,  9, 11)  (  1, 10, 10)


 UBUDSV SAVING "      ZETASRF  1" ON UNIT170 AT TIME STEP105, STRESS PERIOD    2


                      VOLUMETRIC SWI ZONE BUDGET FOR ENTIRE MODEL
                     AT END OF TIME STEP  105 IN STRESS PERIOD   2
                                      ZONE     1
  -----------------------------------------------------------------------------------

        CUMULATIVE VOLUMES      L**3       RATES FOR THIS TIME STEP      L**3/T
        ------------------                 ------------------------

              IN:                                      IN:
              ---                                      ---
             BOUNDARIES =   847218112.0000            BOUNDARIES =           0.1800
          CONSTANT HEAD =           0.0000         CONSTANT HEAD =           0.0000
            ZONE CHANGE =   218435568.0000           ZONE CHANGE =       3.9712E-02
       ZONE CHG TIP/TOE =    14414171.0000      ZONE CHG TIP/TOE =       6.6639E-03
            ZONE MIXING =           0.0000           ZONE MIXING =           0.0000

               TOTAL IN =  1080067840.0000              TOTAL IN =           0.2264

             OUT:                                     OUT:
             ----                                     ----
             BOUNDARIES =   976283008.0000            BOUNDARIES =           0.2210
          CONSTANT HEAD =           0.0000         CONSTANT HEAD =           0.0000
            ZONE CHANGE =    36153836.0000           ZONE CHANGE =       8.7498E-03
       ZONE CHG TIP/TOE =    11353067.0000      ZONE CHG TIP/TOE =       5.4745E-03
            ZONE MIXING =     1870834.3750           ZONE MIXING =       3.5904E-03

              TOTAL OUT =  1025660736.0000             TOTAL OUT =           0.2388

               IN - OUT =    54407104.0000              IN - OUT =      -1.2407E-02

    PERCENT DISCREPANCY =           5.17     PERCENT DISCREPANCY =          -5.33



                      VOLUMETRIC SWI ZONE BUDGET FOR ENTIRE MODEL
                     AT END OF TIME STEP  105 IN STRESS PERIOD   2
                                      ZONE     2
  -----------------------------------------------------------------------------------

        CUMULATIVE VOLUMES      L**3       RATES FOR THIS TIME STEP      L**3/T
        ------------------                 ------------------------

              IN:                                      IN:
              ---                                      ---
             BOUNDARIES =   169380016.0000            BOUNDARIES =           0.1388
          CONSTANT HEAD =           0.0000         CONSTANT HEAD =           0.0000
            ZONE CHANGE =    30517990.0000           ZONE CHANGE =       7.8075E-03
       ZONE CHG TIP/TOE =    31643696.0000      ZONE CHG TIP/TOE =       1.2603E-02
            ZONE MIXING =     1870834.3750           ZONE MIXING =       3.5904E-03

               TOTAL IN =   233412544.0000              TOTAL IN =           0.1628

             OUT:                                     OUT:
             ----                                     ----
             BOUNDARIES =   146003344.0000            BOUNDARIES =           0.1294
          CONSTANT HEAD =           0.0000         CONSTANT HEAD =           0.0000
            ZONE CHANGE =    74967632.0000           ZONE CHANGE =       2.0437E-02
       ZONE CHG TIP/TOE =     9232305.0000      ZONE CHG TIP/TOE =       5.7570E-03
            ZONE MIXING =           0.0000           ZONE MIXING =           0.0000

              TOTAL OUT =   230203280.0000             TOTAL OUT =           0.1556

               IN - OUT =     3209264.0000              IN - OUT =       7.1488E-03

    PERCENT DISCREPANCY =           1.38     PERCENT DISCREPANCY =           4.49


 HEAD WILL BE SAVED ON UNIT   37 AT END OF TIME STEP  105, STRESS PERIOD    2

 DRAWDOWN WILL BE SAVED ON UNIT   38 AT END OF TIME STEP  105, STRESS PERIOD    2
1
  VOLUMETRIC BUDGET FOR ENTIRE MODEL AT END OF TIME STEP  105, STRESS PERIOD   2
  ------------------------------------------------------------------------------

     CUMULATIVE VOLUMES      L**3       RATES FOR THIS TIME STEP      L**3/T
     ------------------                 ------------------------

           IN:                                      IN:
           ---                                      ---
             STORAGE =   100410480.0000               STORAGE =       3.2144E-02
       CONSTANT HEAD =           0.0000         CONSTANT HEAD =           0.0000
               WELLS =           0.0000                 WELLS =           0.0000
       RIVER LEAKAGE =   175231936.0000         RIVER LEAKAGE =       3.4000E-02
                  ET =           0.0000                    ET =           0.0000
     HEAD DEP BOUNDS =   181449952.0000       HEAD DEP BOUNDS =           0.1442
            RECHARGE =   718672704.0000              RECHARGE =           0.1602
          SWIADDTOCH =           0.0000            SWIADDTOCH =           0.0000

            TOTAL IN =  1175765120.0000              TOTAL IN =           0.3705

          OUT:                                     OUT:
          ----                                     ----
             STORAGE =      190904.2188               STORAGE =       5.1728E-04
       CONSTANT HEAD =           0.0000         CONSTANT HEAD =           0.0000
               WELLS =   630814784.0000                 WELLS =           0.3700
       RIVER LEAKAGE =    21630804.0000         RIVER LEAKAGE =           0.0000
                  ET =   166413648.0000                    ET =           0.0000
     HEAD DEP BOUNDS =   356727456.0000       HEAD DEP BOUNDS =           0.0000
            RECHARGE =           0.0000              RECHARGE =           0.0000
          SWIADDTOCH =           0.0000            SWIADDTOCH =           0.0000

           TOTAL OUT =  1175777536.0000             TOTAL OUT =           0.3705

            IN - OUT =      -12416.0000              IN - OUT =           0.0000

 PERCENT DISCREPANCY =          -0.00     PERCENT DISCREPANCY =           0.00






         TIME SUMMARY AT END OF TIME STEP  105 IN STRESS PERIOD    2
                    SECONDS     MINUTES      HOURS       DAYS        YEARS
                    -----------------------------------------------------------
   TIME STEP LENGTH 1.57680E+07 2.62800E+05  4380.0      182.50     0.49966    
 STRESS PERIOD TIME 1.65564E+09 2.75940E+07 4.59901E+05  19163.      52.464    
         TOTAL TIME 4.80925E+09 8.01541E+07 1.33590E+06  55663.      152.40    
1
 
 SOLVING FOR HEAD 

 CELL CONVERSIONS FOR ITER.=  6  LAYER=  1  STEP=106  PERIOD=   2   (ROW,COL)
    DRY(  9, 22)   
     7 CALLS TO PCG ROUTINE FOR TIME STEP 106 IN STRESS PERIOD    2
    19 TOTAL ITERATIONS

 MAXIMUM HEAD CHANGE FOR EACH ITERATION (1 INDICATES THE FIRST INNER ITERATION):

    HEAD CHANGE    HEAD CHANGE    HEAD CHANGE    HEAD CHANGE    HEAD CHANGE 
   LAYER,ROW,COL  LAYER,ROW,COL  LAYER,ROW,COL  LAYER,ROW,COL  LAYER,ROW,COL
 ---------------------------------------------------------------------------
  1 -0.3591      0 -0.1187      0 -0.3099E-01  0 -0.5761E-02  0  0.1511E-02
   (  2, 18, 11)  (  1, 16, 12)  (  1, 18, 12)  (  1, 13, 10)  (  2, 13,  9)
  0  0.4609E-03  1 -0.1813E-01  0  0.3584E-02  0  0.7046E-03  1 -0.7767E-02
   (  1, 21, 11)  (  1,  9, 22)  (  2, 18, 10)  (  2, 17, 11)  (  2, 55, 32)
  0 -0.2724E-03  1  0.5218E-02  0  0.1225E-03  1 -0.3519E-02  0 -0.7234E-04
   (  2, 11, 19)  (  2, 55, 32)  (  2, 11, 19)  (  2, 55, 32)  (  2, 11, 19)
  1 -0.4224E-01  0 -0.4273E-02  0 -0.9964E-03  1 -0.6596E-03
   (  2,  9, 22)  (  2,  8, 24)  (  2,  8, 23)  (  2, 55, 32)

 MAXIMUM RESIDUAL FOR EACH ITERATION (1 INDICATES THE FIRST INNER ITERATION):

    RESIDUAL       RESIDUAL       RESIDUAL       RESIDUAL       RESIDUAL    
   LAYER,ROW,COL  LAYER,ROW,COL  LAYER,ROW,COL  LAYER,ROW,COL  LAYER,ROW,COL
 ---------------------------------------------------------------------------
  1  0.5653E-03  0 -0.2266E-03  0 -0.5350E-04  0  0.1486E-04  0  0.5502E-05
   (  1, 18, 12)  (  2, 17, 11)  (  2, 13,  9)  (  1, 13, 10)  (  2, 15, 12)
  0  0.1729E-05  1  0.7237E-04  0  0.7844E-05  0  0.1429E-05  1  0.8067E-05
   (  2, 20, 10)  (  1,  9, 22)  (  1,  9, 22)  (  1,  9, 22)  (  1,  9, 22)
  0  0.1100E-05  1  0.3436E-04  0  0.7880E-05  1 -0.5918E-05  0 -0.1774E-05
   (  1,  9, 22)  (  1,  9, 22)  (  1,  9, 22)  (  2,  9, 22)  (  2,  9, 22)
  1  0.3071E-04  0  0.1050E-04  0  0.3105E-05  1  0.1491E-05
   (  2,  9, 22)  (  2,  8, 23)  (  2,  8, 23)  (  2,  8, 23)



 OUTPUT CONTROL FOR STRESS PERIOD    2   TIME STEP  106
    SAVE HEAD FOR ALL LAYERS
    SAVE DRAWDOWN FOR ALL LAYERS
    SAVE BUDGET
    PRINT BUDGET
 UBDSV1 SAVING "         STORAGE" ON UNIT   9 AT TIME STEP106, STRESS PERIOD   2
 UBDSV2 SAVING "   CONSTANT HEAD" ON UNIT   9 AT TIME STEP106, STRESS PERIOD   2
 UBDSV1 SAVING "FLOW RIGHT FACE " ON UNIT   9 AT TIME STEP106, STRESS PERIOD   2
 UBDSV1 SAVING "FLOW FRONT FACE " ON UNIT   9 AT TIME STEP106, STRESS PERIOD   2
 UBDSV1 SAVING "FLOW LOWER FACE " ON UNIT   9 AT TIME STEP106, STRESS PERIOD   2
 UBDSV4 SAVING "           WELLS" ON UNIT   9 AT TIME STEP106, STRESS PERIOD   2
 UBDSV4 SAVING "   RIVER LEAKAGE" ON UNIT   9 AT TIME STEP106, STRESS PERIOD   2
 UBDSV3 SAVING "              ET" ON UNIT   9 AT TIME STEP106, STRESS PERIOD   2
 UBDSV4 SAVING " HEAD DEP BOUNDS" ON UNIT   9 AT TIME STEP106, STRESS PERIOD   2
 UBDSV3 SAVING "        RECHARGE" ON UNIT   9 AT TIME STEP106, STRESS PERIOD   2
 SOLVING FOR ZETA FOR LAYER     1 ZONE     2
     2 CALLS TO PCG ROUTINE FOR TIME STEP 106 IN STRESS PERIOD    2
     5 TOTAL ITERATIONS

 MAXIMUM HEAD CHANGE FOR EACH ITERATION (1 INDICATES THE FIRST INNER ITERATION):

    HEAD CHANGE    HEAD CHANGE    HEAD CHANGE    HEAD CHANGE    HEAD CHANGE 
   LAYER,ROW,COL  LAYER,ROW,COL  LAYER,ROW,COL  LAYER,ROW,COL  LAYER,ROW,COL
 ---------------------------------------------------------------------------
  1   37.04      0  0.2060      0  0.2432E-02  0  0.2123E-04  1  0.7370E-06
   (  1, 20,  9)  (  1, 17,  6)  (  1, 16,  7)  (  1, 15,  8)  (  1, 20,  9)

 MAXIMUM RESIDUAL FOR EACH ITERATION (1 INDICATES THE FIRST INNER ITERATION):

    RESIDUAL       RESIDUAL       RESIDUAL       RESIDUAL       RESIDUAL    
   LAYER,ROW,COL  LAYER,ROW,COL  LAYER,ROW,COL  LAYER,ROW,COL  LAYER,ROW,COL
 ---------------------------------------------------------------------------
  1 -0.6123E-04  0 -0.8993E-06  0 -0.7572E-08  0 -0.6589E-10  1 -0.1832E-11
   (  1, 17,  6)  (  1, 16,  7)  (  1, 15,  8)  (  1, 16,  7)  (  1, 19, 10)


 SOLVING FOR ZETA FOR LAYER     2 ZONE     2
     2 CALLS TO PCG ROUTINE FOR TIME STEP 106 IN STRESS PERIOD    2
     4 TOTAL ITERATIONS

 MAXIMUM HEAD CHANGE FOR EACH ITERATION (1 INDICATES THE FIRST INNER ITERATION):

    HEAD CHANGE    HEAD CHANGE    HEAD CHANGE    HEAD CHANGE    HEAD CHANGE 
   LAYER,ROW,COL  LAYER,ROW,COL  LAYER,ROW,COL  LAYER,ROW,COL  LAYER,ROW,COL
 ---------------------------------------------------------------------------
  1  -6.780      0  0.4542E-01  0  0.5843E-03  1  0.7805E-05
   (  1, 17, 12)  (  1,  7, 10)  (  1, 10, 10)  (  1,  9, 11)

 MAXIMUM RESIDUAL FOR EACH ITERATION (1 INDICATES THE FIRST INNER ITERATION):

    RESIDUAL       RESIDUAL       RESIDUAL       RESIDUAL       RESIDUAL    
   LAYER,ROW,COL  LAYER,ROW,COL  LAYER,ROW,COL  LAYER,ROW,COL  LAYER,ROW,COL
 ---------------------------------------------------------------------------
  1 -0.1459E-04  0 -0.1948E-06  0 -0.3266E-08  1 -0.5361E-10
   (  1,  7, 10)  (  1, 10, 10)  (  1,  9, 11)  (  1, 10, 10)


 UBUDSV SAVING "      ZETASRF  1" ON UNIT170 AT TIME STEP106, STRESS PERIOD    2


                      VOLUMETRIC SWI ZONE BUDGET FOR ENTIRE MODEL
                     AT END OF TIME STEP  106 IN STRESS PERIOD   2
                                      ZONE     1
  -----------------------------------------------------------------------------------

        CUMULATIVE VOLUMES      L**3       RATES FOR THIS TIME STEP      L**3/T
        ------------------                 ------------------------

              IN:                                      IN:
              ---                                      ---
             BOUNDARIES =   850044352.0000            BOUNDARIES =           0.1792
          CONSTANT HEAD =           0.0000         CONSTANT HEAD =           0.0000
            ZONE CHANGE =   219120240.0000           ZONE CHANGE =       4.3421E-02
       ZONE CHG TIP/TOE =    14558858.0000      ZONE CHG TIP/TOE =       9.1760E-03
            ZONE MIXING =           0.0000           ZONE MIXING =           0.0000

               TOTAL IN =  1083723520.0000              TOTAL IN =           0.2318

             OUT:                                     OUT:
             ----                                     ----
             BOUNDARIES =   981138368.0000            BOUNDARIES =           0.3079
          CONSTANT HEAD =           0.0000         CONSTANT HEAD =           0.0000
            ZONE CHANGE =    36352020.0000           ZONE CHANGE =       1.2569E-02
       ZONE CHG TIP/TOE =    11439203.0000      ZONE CHG TIP/TOE =       5.4627E-03
            ZONE MIXING =     1870834.3750           ZONE MIXING =           0.0000

              TOTAL OUT =  1030800448.0000             TOTAL OUT =           0.3260

               IN - OUT =    52923072.0000              IN - OUT =      -9.4119E-02

    PERCENT DISCREPANCY =           5.01     PERCENT DISCREPANCY =         -33.75



                      VOLUMETRIC SWI ZONE BUDGET FOR ENTIRE MODEL
                     AT END OF TIME STEP  106 IN STRESS PERIOD   2
                                      ZONE     2
  -----------------------------------------------------------------------------------

        CUMULATIVE VOLUMES      L**3       RATES FOR THIS TIME STEP      L**3/T
        ------------------                 ------------------------

              IN:                                      IN:
              ---                                      ---
             BOUNDARIES =   171585952.0000            BOUNDARIES =           0.1399
          CONSTANT HEAD =           0.0000         CONSTANT HEAD =           0.0000
            ZONE CHANGE =    30646438.0000           ZONE CHANGE =       8.1462E-03
       ZONE CHG TIP/TOE =    33217756.0000      ZONE CHG TIP/TOE =       9.9826E-02
            ZONE MIXING =     1870834.3750           ZONE MIXING =           0.0000

               TOTAL IN =   237320992.0000              TOTAL IN =           0.2479

             OUT:                                     OUT:
             ----                                     ----
             BOUNDARIES =   146673136.0000            BOUNDARIES =       4.2478E-02
          CONSTANT HEAD =           0.0000         CONSTANT HEAD =           0.0000
            ZONE CHANGE =    76732856.0000           ZONE CHANGE =           0.1119
       ZONE CHG TIP/TOE =     9303671.0000      ZONE CHG TIP/TOE =       4.5260E-03
            ZONE MIXING =           0.0000           ZONE MIXING =           0.0000

              TOTAL OUT =   232709664.0000             TOTAL OUT =           0.1590

               IN - OUT =     4611328.0000              IN - OUT =       8.8919E-02

    PERCENT DISCREPANCY =           1.96     PERCENT DISCREPANCY =          43.71


 HEAD WILL BE SAVED ON UNIT   37 AT END OF TIME STEP  106, STRESS PERIOD    2

 DRAWDOWN WILL BE SAVED ON UNIT   38 AT END OF TIME STEP  106, STRESS PERIOD    2
1
  VOLUMETRIC BUDGET FOR ENTIRE MODEL AT END OF TIME STEP  106, STRESS PERIOD   2
  ------------------------------------------------------------------------------

     CUMULATIVE VOLUMES      L**3       RATES FOR THIS TIME STEP      L**3/T
     ------------------                 ------------------------

           IN:                                      IN:
           ---                                      ---
             STORAGE =   100908904.0000               STORAGE =       3.1610E-02
       CONSTANT HEAD =           0.0000         CONSTANT HEAD =           0.0000
               WELLS =           0.0000                 WELLS =           0.0000
       RIVER LEAKAGE =   175768048.0000         RIVER LEAKAGE =       3.4000E-02
                  ET =           0.0000                    ET =           0.0000
     HEAD DEP BOUNDS =   183732048.0000       HEAD DEP BOUNDS =           0.1447
            RECHARGE =   721195712.0000              RECHARGE =           0.1600
          SWIADDTOCH =           0.0000            SWIADDTOCH =           0.0000

            TOTAL IN =  1181604736.0000              TOTAL IN =           0.3703

          OUT:                                     OUT:
          ----                                     ----
             STORAGE =      196422.0312               STORAGE =       3.4994E-04
       CONSTANT HEAD =           0.0000         CONSTANT HEAD =           0.0000
               WELLS =   636648960.0000                 WELLS =           0.3700
       RIVER LEAKAGE =    21630804.0000         RIVER LEAKAGE =           0.0000
                  ET =   166413648.0000                    ET =           0.0000
     HEAD DEP BOUNDS =   356727456.0000       HEAD DEP BOUNDS =           0.0000
            RECHARGE =           0.0000              RECHARGE =           0.0000
          SWIADDTOCH =           0.0000            SWIADDTOCH =           0.0000

           TOTAL OUT =  1181617280.0000             TOTAL OUT =           0.3703

            IN - OUT =      -12544.0000              IN - OUT =      -3.0398E-06

 PERCENT DISCREPANCY =          -0.00     PERCENT DISCREPANCY =          -0.00






         TIME SUMMARY AT END OF TIME STEP  106 IN STRESS PERIOD    2
                    SECONDS     MINUTES      HOURS       DAYS        YEARS
                    -----------------------------------------------------------
   TIME STEP LENGTH 1.57680E+07 2.62800E+05  4380.0      182.50     0.49966    
 STRESS PERIOD TIME 1.67141E+09 2.78568E+07 4.64281E+05  19345.      52.964    
         TOTAL TIME 4.82501E+09 8.04169E+07 1.34028E+06  55845.      152.90    
1
 
 SOLVING FOR HEAD 
     8 CALLS TO PCG ROUTINE FOR TIME STEP 107 IN STRESS PERIOD    2
    20 TOTAL ITERATIONS

 MAXIMUM HEAD CHANGE FOR EACH ITERATION (1 INDICATES THE FIRST INNER ITERATION):

    HEAD CHANGE    HEAD CHANGE    HEAD CHANGE    HEAD CHANGE    HEAD CHANGE 
   LAYER,ROW,COL  LAYER,ROW,COL  LAYER,ROW,COL  LAYER,ROW,COL  LAYER,ROW,COL
 ---------------------------------------------------------------------------
  1 -0.3371      0  0.9918E-01  0 -0.2064E-01  0 -0.4888E-02  0 -0.1458E-02
   (  2, 17, 12)  (  1, 17, 12)  (  1, 15, 11)  (  1, 13, 12)  (  2,  6, 12)
  0  0.4792E-03  1  0.9303E-02  0  0.3561E-02  0  0.9810E-03  1 -0.4909E-02
   (  2,  6, 11)  (  2, 55, 31)  (  2, 55, 31)  (  2, 55, 31)  (  2, 55, 32)
  0 -0.7113E-03  1  0.3511E-02  0  0.3130E-03  1 -0.2576E-02  0 -0.1013E-03
   (  2, 55, 32)  (  2, 55, 32)  (  2, 55, 32)  (  2, 55, 32)  (  2, 55, 32)
  1  0.1858E-02  0  0.4863E-04  1 -0.1343E-02  0 -0.2483E-04  1  0.9643E-03
   (  2, 55, 32)  (  2, 55, 32)  (  2, 55, 32)  (  2, 55, 32)  (  2, 55, 32)

 MAXIMUM RESIDUAL FOR EACH ITERATION (1 INDICATES THE FIRST INNER ITERATION):

    RESIDUAL       RESIDUAL       RESIDUAL       RESIDUAL       RESIDUAL    
   LAYER,ROW,COL  LAYER,ROW,COL  LAYER,ROW,COL  LAYER,ROW,COL  LAYER,ROW,COL
 ---------------------------------------------------------------------------
  1  0.6829E-03  0  0.1503E-03  0  0.5040E-04  0 -0.1333E-04  0  0.4791E-05
   (  2, 19, 11)  (  2, 20, 10)  (  1, 16, 12)  (  2, 16, 11)  (  1, 17, 12)
  0  0.2003E-05  1 -0.3843E-05  0 -0.1327E-05  0 -0.3480E-06  1 -0.4892E-06
   (  1, 17, 12)  (  2, 18, 13)  (  2, 20, 11)  (  1, 18, 11)  (  2, 12, 18)
  0 -0.2299E-06  1  0.2765E-06  0  0.1382E-06  1 -0.1363E-06  0 -0.5750E-07
   (  2, 12, 18)  (  2, 12, 18)  (  2, 12, 18)  (  2, 12, 18)  (  2, 12, 18)
  1  0.6641E-07  0  0.2381E-07  1  0.2919E-07  0 -0.1698E-07  1  0.2493E-07
   (  2,  5, 11)  (  2, 53, 33)  (  2,  5, 11)  (  2, 53, 36)  (  2,  5, 11)



 OUTPUT CONTROL FOR STRESS PERIOD    2   TIME STEP  107
    SAVE HEAD FOR ALL LAYERS
    SAVE DRAWDOWN FOR ALL LAYERS
    SAVE BUDGET
    PRINT BUDGET
 UBDSV1 SAVING "         STORAGE" ON UNIT   9 AT TIME STEP107, STRESS PERIOD   2
 UBDSV2 SAVING "   CONSTANT HEAD" ON UNIT   9 AT TIME STEP107, STRESS PERIOD   2
 UBDSV1 SAVING "FLOW RIGHT FACE " ON UNIT   9 AT TIME STEP107, STRESS PERIOD   2
 UBDSV1 SAVING "FLOW FRONT FACE " ON UNIT   9 AT TIME STEP107, STRESS PERIOD   2
 UBDSV1 SAVING "FLOW LOWER FACE " ON UNIT   9 AT TIME STEP107, STRESS PERIOD   2
 UBDSV4 SAVING "           WELLS" ON UNIT   9 AT TIME STEP107, STRESS PERIOD   2
 UBDSV4 SAVING "   RIVER LEAKAGE" ON UNIT   9 AT TIME STEP107, STRESS PERIOD   2
 UBDSV3 SAVING "              ET" ON UNIT   9 AT TIME STEP107, STRESS PERIOD   2
 UBDSV4 SAVING " HEAD DEP BOUNDS" ON UNIT   9 AT TIME STEP107, STRESS PERIOD   2
 UBDSV3 SAVING "        RECHARGE" ON UNIT   9 AT TIME STEP107, STRESS PERIOD   2
 SOLVING FOR ZETA FOR LAYER     1 ZONE     2
     2 CALLS TO PCG ROUTINE FOR TIME STEP 107 IN STRESS PERIOD    2
     4 TOTAL ITERATIONS

 MAXIMUM HEAD CHANGE FOR EACH ITERATION (1 INDICATES THE FIRST INNER ITERATION):

    HEAD CHANGE    HEAD CHANGE    HEAD CHANGE    HEAD CHANGE    HEAD CHANGE 
   LAYER,ROW,COL  LAYER,ROW,COL  LAYER,ROW,COL  LAYER,ROW,COL  LAYER,ROW,COL
 ---------------------------------------------------------------------------
  1   31.86      0  0.6699E-01  0  0.2445E-03  1 -0.1744E-05
   (  1, 20,  8)  (  1, 22,  8)  (  1, 21,  9)  (  1, 20,  8)

 MAXIMUM RESIDUAL FOR EACH ITERATION (1 INDICATES THE FIRST INNER ITERATION):

    RESIDUAL       RESIDUAL       RESIDUAL       RESIDUAL       RESIDUAL    
   LAYER,ROW,COL  LAYER,ROW,COL  LAYER,ROW,COL  LAYER,ROW,COL  LAYER,ROW,COL
 ---------------------------------------------------------------------------
  1 -0.2021E-04  0 -0.7101E-07  0  0.3514E-09  1 -0.4887E-11
   (  1, 22,  8)  (  1, 21,  9)  (  1, 24,  4)  (  1,  9,  2)


 SOLVING FOR ZETA FOR LAYER     2 ZONE     2
     2 CALLS TO PCG ROUTINE FOR TIME STEP 107 IN STRESS PERIOD    2
     4 TOTAL ITERATIONS

 MAXIMUM HEAD CHANGE FOR EACH ITERATION (1 INDICATES THE FIRST INNER ITERATION):

    HEAD CHANGE    HEAD CHANGE    HEAD CHANGE    HEAD CHANGE    HEAD CHANGE 
   LAYER,ROW,COL  LAYER,ROW,COL  LAYER,ROW,COL  LAYER,ROW,COL  LAYER,ROW,COL
 ---------------------------------------------------------------------------
  1   8.735      0  0.4268E-01  0  0.5737E-03  1  0.7578E-05
   (  1, 17, 11)  (  1,  7, 10)  (  1, 10, 10)  (  1,  9, 11)

 MAXIMUM RESIDUAL FOR EACH ITERATION (1 INDICATES THE FIRST INNER ITERATION):

    RESIDUAL       RESIDUAL       RESIDUAL       RESIDUAL       RESIDUAL    
   LAYER,ROW,COL  LAYER,ROW,COL  LAYER,ROW,COL  LAYER,ROW,COL  LAYER,ROW,COL
 ---------------------------------------------------------------------------
  1 -0.1366E-04  0 -0.1914E-06  0 -0.3186E-08  1 -0.5057E-10
   (  1,  7, 10)  (  1, 10, 10)  (  1,  9, 11)  (  1, 10, 10)


 UBUDSV SAVING "      ZETASRF  1" ON UNIT170 AT TIME STEP107, STRESS PERIOD    2


                      VOLUMETRIC SWI ZONE BUDGET FOR ENTIRE MODEL
                     AT END OF TIME STEP  107 IN STRESS PERIOD   2
                                      ZONE     1
  -----------------------------------------------------------------------------------

        CUMULATIVE VOLUMES      L**3       RATES FOR THIS TIME STEP      L**3/T
        ------------------                 ------------------------

              IN:                                      IN:
              ---                                      ---
             BOUNDARIES =   852869568.0000            BOUNDARIES =           0.1792
          CONSTANT HEAD =           0.0000         CONSTANT HEAD =           0.0000
            ZONE CHANGE =   219770352.0000           ZONE CHANGE =       4.1229E-02
       ZONE CHG TIP/TOE =    14645826.0000      ZONE CHG TIP/TOE =       5.5155E-03
            ZONE MIXING =           0.0000           ZONE MIXING =           0.0000

               TOTAL IN =  1087285760.0000              TOTAL IN =           0.2259

             OUT:                                     OUT:
             ----                                     ----
             BOUNDARIES =   984622592.0000            BOUNDARIES =           0.2210
          CONSTANT HEAD =           0.0000         CONSTANT HEAD =           0.0000
            ZONE CHANGE =    36438040.0000           ZONE CHANGE =       5.4555E-03
       ZONE CHG TIP/TOE =    11523383.0000      ZONE CHG TIP/TOE =       5.3386E-03
            ZONE MIXING =     2011814.5000           ZONE MIXING =       8.9409E-03

              TOTAL OUT =  1034595840.0000             TOTAL OUT =           0.2407

               IN - OUT =    52689920.0000              IN - OUT =      -1.4787E-02

    PERCENT DISCREPANCY =           4.97     PERCENT DISCREPANCY =          -6.34



                      VOLUMETRIC SWI ZONE BUDGET FOR ENTIRE MODEL
                     AT END OF TIME STEP  107 IN STRESS PERIOD   2
                                      ZONE     2
  -----------------------------------------------------------------------------------

        CUMULATIVE VOLUMES      L**3       RATES FOR THIS TIME STEP      L**3/T
        ------------------                 ------------------------

              IN:                                      IN:
              ---                                      ---
             BOUNDARIES =   173799392.0000            BOUNDARIES =           0.1404
          CONSTANT HEAD =           0.0000         CONSTANT HEAD =           0.0000
            ZONE CHANGE =    30728022.0000           ZONE CHANGE =       5.1741E-03
       ZONE CHG TIP/TOE =    33519372.0000      ZONE CHG TIP/TOE =       1.9128E-02
            ZONE MIXING =     2011814.5000           ZONE MIXING =       8.9409E-03

               TOTAL IN =   240058592.0000              TOTAL IN =           0.1736

             OUT:                                     OUT:
             ----                                     ----
             BOUNDARIES =   148714048.0000            BOUNDARIES =           0.1294
          CONSTANT HEAD =           0.0000         CONSTANT HEAD =           0.0000
            ZONE CHANGE =    77197296.0000           ZONE CHANGE =       2.9454E-02
       ZONE CHG TIP/TOE =     9383671.0000      ZONE CHG TIP/TOE =       5.0736E-03
            ZONE MIXING =           0.0000           ZONE MIXING =           0.0000

              TOTAL OUT =   235295008.0000             TOTAL OUT =           0.1640

               IN - OUT =     4763584.0000              IN - OUT =       9.6568E-03

    PERCENT DISCREPANCY =           2.00     PERCENT DISCREPANCY =           5.72


 HEAD WILL BE SAVED ON UNIT   37 AT END OF TIME STEP  107, STRESS PERIOD    2

 DRAWDOWN WILL BE SAVED ON UNIT   38 AT END OF TIME STEP  107, STRESS PERIOD    2
1
  VOLUMETRIC BUDGET FOR ENTIRE MODEL AT END OF TIME STEP  107, STRESS PERIOD   2
  ------------------------------------------------------------------------------

     CUMULATIVE VOLUMES      L**3       RATES FOR THIS TIME STEP      L**3/T
     ------------------                 ------------------------

           IN:                                      IN:
           ---                                      ---
             STORAGE =   101399232.0000               STORAGE =       3.1096E-02
       CONSTANT HEAD =           0.0000         CONSTANT HEAD =           0.0000
               WELLS =           0.0000                 WELLS =           0.0000
       RIVER LEAKAGE =   176304160.0000         RIVER LEAKAGE =       3.4000E-02
                  ET =           0.0000                    ET =           0.0000
     HEAD DEP BOUNDS =   186020560.0000       HEAD DEP BOUNDS =           0.1451
            RECHARGE =   723718720.0000              RECHARGE =           0.1600
          SWIADDTOCH =           0.0000            SWIADDTOCH =           0.0000

            TOTAL IN =  1187442688.0000              TOTAL IN =           0.3702

          OUT:                                     OUT:
          ----                                     ----
             STORAGE =      200218.5781               STORAGE =       2.4078E-04
       CONSTANT HEAD =           0.0000         CONSTANT HEAD =           0.0000
               WELLS =   642483136.0000                 WELLS =           0.3700
       RIVER LEAKAGE =    21630804.0000         RIVER LEAKAGE =           0.0000
                  ET =   166413648.0000                    ET =           0.0000
     HEAD DEP BOUNDS =   356727456.0000       HEAD DEP BOUNDS =           0.0000
            RECHARGE =           0.0000              RECHARGE =           0.0000
          SWIADDTOCH =           0.0000            SWIADDTOCH =           0.0000

           TOTAL OUT =  1187455232.0000             TOTAL OUT =           0.3702

            IN - OUT =      -12544.0000              IN - OUT =           0.0000

 PERCENT DISCREPANCY =          -0.00     PERCENT DISCREPANCY =           0.00






         TIME SUMMARY AT END OF TIME STEP  107 IN STRESS PERIOD    2
                    SECONDS     MINUTES      HOURS       DAYS        YEARS
                    -----------------------------------------------------------
   TIME STEP LENGTH 1.57680E+07 2.62800E+05  4380.0      182.50     0.49966    
 STRESS PERIOD TIME 1.68718E+09 2.81196E+07 4.68661E+05  19528.      53.463    
         TOTAL TIME 4.84078E+09 8.06797E+07 1.34466E+06  56028.      153.40    
1
 
 SOLVING FOR HEAD 

 CELL CONVERSIONS FOR ITER.=  2  LAYER=  1  STEP=108  PERIOD=   2   (ROW,COL)
    DRY(  8, 25)   DRY( 30, 36)   
     9 CALLS TO PCG ROUTINE FOR TIME STEP 108 IN STRESS PERIOD    2
    23 TOTAL ITERATIONS

 MAXIMUM HEAD CHANGE FOR EACH ITERATION (1 INDICATES THE FIRST INNER ITERATION):

    HEAD CHANGE    HEAD CHANGE    HEAD CHANGE    HEAD CHANGE    HEAD CHANGE 
   LAYER,ROW,COL  LAYER,ROW,COL  LAYER,ROW,COL  LAYER,ROW,COL  LAYER,ROW,COL
 ---------------------------------------------------------------------------
  1 -0.3232      0 -0.1419      0  0.2922E-01  0  0.7346E-02  0 -0.1502E-02
   (  2, 18, 11)  (  1, 17, 12)  (  1, 17, 11)  (  1, 16, 12)  (  2,  5, 11)
  0  0.5854E-03  1 -0.4845E-01  0 -0.1698E-01  0 -0.1549E-02  0 -0.2678E-03
   (  2,  5, 11)  (  2, 30, 36)  (  2, 29, 37)  (  2, 31, 35)  (  2,  6, 30)
  1 -0.3705E-02  0 -0.7582E-03  1  0.2934E-02  0  0.3350E-03  1 -0.2348E-02
   (  2, 55, 32)  (  2, 55, 32)  (  2, 55, 32)  (  2, 55, 32)  (  2, 55, 32)
  0 -0.1295E-03  1  0.1874E-02  0  0.5030E-04  1 -0.1484E-02  0 -0.2656E-04
   (  2, 55, 32)  (  2, 55, 32)  (  2, 55, 32)  (  2, 55, 32)  (  2, 55, 32)
  1  0.1171E-02  0  0.1789E-04  1 -0.9234E-03
   (  2, 55, 32)  (  2, 55, 32)  (  2, 55, 32)

 MAXIMUM RESIDUAL FOR EACH ITERATION (1 INDICATES THE FIRST INNER ITERATION):

    RESIDUAL       RESIDUAL       RESIDUAL       RESIDUAL       RESIDUAL    
   LAYER,ROW,COL  LAYER,ROW,COL  LAYER,ROW,COL  LAYER,ROW,COL  LAYER,ROW,COL
 ---------------------------------------------------------------------------
  1  0.7495E-03  0  0.2027E-03  0 -0.6914E-04  0  0.1920E-04  0  0.6344E-05
   (  1, 17, 12)  (  1, 17, 12)  (  1, 16, 12)  (  2, 16, 11)  (  1, 18, 11)
  0 -0.2438E-05  1  0.4269E-04  0  0.1083E-04  0  0.2341E-05  0 -0.7160E-06
   (  1, 17, 12)  (  2,  8, 25)  (  2, 31, 35)  (  2,  7, 26)  (  2, 10, 24)
  1 -0.5345E-06  0 -0.2238E-06  1  0.2675E-06  0  0.1378E-06  1 -0.1473E-06
   (  2,  5, 11)  (  2, 12, 18)  (  2, 12, 18)  (  2, 12, 18)  (  2, 12, 18)
  0 -0.6505E-07  1  0.6622E-07  0  0.2841E-07  1 -0.3620E-07  0 -0.1681E-07
   (  2, 12, 18)  (  2, 12, 18)  (  2, 12, 18)  (  2,  5, 11)  (  2, 53, 33)
  1 -0.2346E-07  0  0.1312E-07  1 -0.1890E-07
   (  2,  5, 11)  (  2, 53, 36)  (  2,  5, 11)



 OUTPUT CONTROL FOR STRESS PERIOD    2   TIME STEP  108
    SAVE HEAD FOR ALL LAYERS
    SAVE DRAWDOWN FOR ALL LAYERS
    SAVE BUDGET
    PRINT BUDGET
 UBDSV1 SAVING "         STORAGE" ON UNIT   9 AT TIME STEP108, STRESS PERIOD   2
 UBDSV2 SAVING "   CONSTANT HEAD" ON UNIT   9 AT TIME STEP108, STRESS PERIOD   2
 UBDSV1 SAVING "FLOW RIGHT FACE " ON UNIT   9 AT TIME STEP108, STRESS PERIOD   2
 UBDSV1 SAVING "FLOW FRONT FACE " ON UNIT   9 AT TIME STEP108, STRESS PERIOD   2
 UBDSV1 SAVING "FLOW LOWER FACE " ON UNIT   9 AT TIME STEP108, STRESS PERIOD   2
 UBDSV4 SAVING "           WELLS" ON UNIT   9 AT TIME STEP108, STRESS PERIOD   2
 UBDSV4 SAVING "   RIVER LEAKAGE" ON UNIT   9 AT TIME STEP108, STRESS PERIOD   2
 UBDSV3 SAVING "              ET" ON UNIT   9 AT TIME STEP108, STRESS PERIOD   2
 UBDSV4 SAVING " HEAD DEP BOUNDS" ON UNIT   9 AT TIME STEP108, STRESS PERIOD   2
 UBDSV3 SAVING "        RECHARGE" ON UNIT   9 AT TIME STEP108, STRESS PERIOD   2
 SOLVING FOR ZETA FOR LAYER     1 ZONE     2
     2 CALLS TO PCG ROUTINE FOR TIME STEP 108 IN STRESS PERIOD    2
     4 TOTAL ITERATIONS

 MAXIMUM HEAD CHANGE FOR EACH ITERATION (1 INDICATES THE FIRST INNER ITERATION):

    HEAD CHANGE    HEAD CHANGE    HEAD CHANGE    HEAD CHANGE    HEAD CHANGE 
   LAYER,ROW,COL  LAYER,ROW,COL  LAYER,ROW,COL  LAYER,ROW,COL  LAYER,ROW,COL
 ---------------------------------------------------------------------------
  1   35.16      0  0.1588      0  0.6663E-03  1 -0.1808E-05
   (  1, 20,  9)  (  1, 19, 10)  (  1, 18, 11)  (  1, 19,  9)

 MAXIMUM RESIDUAL FOR EACH ITERATION (1 INDICATES THE FIRST INNER ITERATION):

    RESIDUAL       RESIDUAL       RESIDUAL       RESIDUAL       RESIDUAL    
   LAYER,ROW,COL  LAYER,ROW,COL  LAYER,ROW,COL  LAYER,ROW,COL  LAYER,ROW,COL
 ---------------------------------------------------------------------------
  1 -0.5305E-04  0 -0.2150E-06  0  0.4077E-09  1 -0.5173E-11
   (  1, 19, 10)  (  1, 18, 11)  (  1, 19,  9)  (  1,  9,  2)


 SOLVING FOR ZETA FOR LAYER     2 ZONE     2
     2 CALLS TO PCG ROUTINE FOR TIME STEP 108 IN STRESS PERIOD    2
     4 TOTAL ITERATIONS

 MAXIMUM HEAD CHANGE FOR EACH ITERATION (1 INDICATES THE FIRST INNER ITERATION):

    HEAD CHANGE    HEAD CHANGE    HEAD CHANGE    HEAD CHANGE    HEAD CHANGE 
   LAYER,ROW,COL  LAYER,ROW,COL  LAYER,ROW,COL  LAYER,ROW,COL  LAYER,ROW,COL
 ---------------------------------------------------------------------------
  1  -6.664      0  0.4003E-01  0  0.5572E-03  1  0.6697E-05
   (  1, 17, 12)  (  1,  7, 10)  (  1, 10, 10)  (  1,  9, 11)

 MAXIMUM RESIDUAL FOR EACH ITERATION (1 INDICATES THE FIRST INNER ITERATION):

    RESIDUAL       RESIDUAL       RESIDUAL       RESIDUAL       RESIDUAL    
   LAYER,ROW,COL  LAYER,ROW,COL  LAYER,ROW,COL  LAYER,ROW,COL  LAYER,ROW,COL
 ---------------------------------------------------------------------------
  1 -0.1274E-04  0 -0.1869E-06  0 -0.2832E-08  1 -0.4831E-10
   (  1,  7, 10)  (  1, 10, 10)  (  1,  9, 11)  (  1, 10, 10)


 UBUDSV SAVING "      ZETASRF  1" ON UNIT170 AT TIME STEP108, STRESS PERIOD    2


                      VOLUMETRIC SWI ZONE BUDGET FOR ENTIRE MODEL
                     AT END OF TIME STEP  108 IN STRESS PERIOD   2
                                      ZONE     1
  -----------------------------------------------------------------------------------

        CUMULATIVE VOLUMES      L**3       RATES FOR THIS TIME STEP      L**3/T
        ------------------                 ------------------------

              IN:                                      IN:
              ---                                      ---
             BOUNDARIES =   855690816.0000            BOUNDARIES =           0.1789
          CONSTANT HEAD =           0.0000         CONSTANT HEAD =           0.0000
            ZONE CHANGE =   220403648.0000           ZONE CHANGE =       4.0163E-02
       ZONE CHG TIP/TOE =    14718539.0000      ZONE CHG TIP/TOE =       4.6114E-03
            ZONE MIXING =           0.0000           ZONE MIXING =           0.0000

               TOTAL IN =  1090813056.0000              TOTAL IN =           0.2237

             OUT:                                     OUT:
             ----                                     ----
             BOUNDARIES =   989022912.0000            BOUNDARIES =           0.2791
          CONSTANT HEAD =           0.0000         CONSTANT HEAD =           0.0000
            ZONE CHANGE =    36639292.0000           ZONE CHANGE =       1.2763E-02
       ZONE CHG TIP/TOE =    11583590.0000      ZONE CHG TIP/TOE =       3.8183E-03
            ZONE MIXING =     2011814.5000           ZONE MIXING =           0.0000

              TOTAL OUT =  1039257600.0000             TOTAL OUT =           0.2956

               IN - OUT =    51555456.0000              IN - OUT =      -7.1952E-02

    PERCENT DISCREPANCY =           4.84     PERCENT DISCREPANCY =         -27.71



                      VOLUMETRIC SWI ZONE BUDGET FOR ENTIRE MODEL
                     AT END OF TIME STEP  108 IN STRESS PERIOD   2
                                      ZONE     2
  -----------------------------------------------------------------------------------

        CUMULATIVE VOLUMES      L**3       RATES FOR THIS TIME STEP      L**3/T
        ------------------                 ------------------------

              IN:                                      IN:
              ---                                      ---
             BOUNDARIES =   176020224.0000            BOUNDARIES =           0.1408
          CONSTANT HEAD =           0.0000         CONSTANT HEAD =           0.0000
            ZONE CHANGE =    30870874.0000           ZONE CHANGE =       9.0596E-03
       ZONE CHG TIP/TOE =    34644504.0000      ZONE CHG TIP/TOE =       7.1355E-02
            ZONE MIXING =     2011814.5000           ZONE MIXING =           0.0000

               TOTAL IN =   243547424.0000              TOTAL IN =           0.2213

             OUT:                                     OUT:
             ----                                     ----
             BOUNDARIES =   149838880.0000            BOUNDARIES =       7.1336E-02
          CONSTANT HEAD =           0.0000         CONSTANT HEAD =           0.0000
            ZONE CHANGE =    78497984.0000           ZONE CHANGE =       8.2489E-02
       ZONE CHG TIP/TOE =     9392740.0000      ZONE CHG TIP/TOE =       5.7517E-04
            ZONE MIXING =           0.0000           ZONE MIXING =           0.0000

              TOTAL OUT =   237729600.0000             TOTAL OUT =           0.1544

               IN - OUT =     5817824.0000              IN - OUT =       6.6858E-02

    PERCENT DISCREPANCY =           2.42     PERCENT DISCREPANCY =          35.60


 HEAD WILL BE SAVED ON UNIT   37 AT END OF TIME STEP  108, STRESS PERIOD    2

 DRAWDOWN WILL BE SAVED ON UNIT   38 AT END OF TIME STEP  108, STRESS PERIOD    2
1
  VOLUMETRIC BUDGET FOR ENTIRE MODEL AT END OF TIME STEP  108, STRESS PERIOD   2
  ------------------------------------------------------------------------------

     CUMULATIVE VOLUMES      L**3       RATES FOR THIS TIME STEP      L**3/T
     ------------------                 ------------------------

           IN:                                      IN:
           ---                                      ---
             STORAGE =   101884592.0000               STORAGE =       3.0781E-02
       CONSTANT HEAD =           0.0000         CONSTANT HEAD =           0.0000
               WELLS =           0.0000                 WELLS =           0.0000
       RIVER LEAKAGE =   176840272.0000         RIVER LEAKAGE =       3.4000E-02
                  ET =           0.0000                    ET =           0.0000
     HEAD DEP BOUNDS =   188318512.0000       HEAD DEP BOUNDS =           0.1457
            RECHARGE =   726235712.0000              RECHARGE =           0.1596
          SWIADDTOCH =           0.0000            SWIADDTOCH =           0.0000

            TOTAL IN =  1193279104.0000              TOTAL IN =           0.3701

          OUT:                                     OUT:
          ----                                     ----
             STORAGE =      202481.7500               STORAGE =       1.4353E-04
       CONSTANT HEAD =           0.0000         CONSTANT HEAD =           0.0000
               WELLS =   648317312.0000                 WELLS =           0.3700
       RIVER LEAKAGE =    21630804.0000         RIVER LEAKAGE =           0.0000
                  ET =   166413648.0000                    ET =           0.0000
     HEAD DEP BOUNDS =   356727456.0000       HEAD DEP BOUNDS =           0.0000
            RECHARGE =           0.0000              RECHARGE =           0.0000
          SWIADDTOCH =           0.0000            SWIADDTOCH =           0.0000

           TOTAL OUT =  1193291648.0000             TOTAL OUT =           0.3701

            IN - OUT =      -12544.0000              IN - OUT =           0.0000

 PERCENT DISCREPANCY =          -0.00     PERCENT DISCREPANCY =           0.00






         TIME SUMMARY AT END OF TIME STEP  108 IN STRESS PERIOD    2
                    SECONDS     MINUTES      HOURS       DAYS        YEARS
                    -----------------------------------------------------------
   TIME STEP LENGTH 1.57680E+07 2.62800E+05  4380.0      182.50     0.49966    
 STRESS PERIOD TIME 1.70295E+09 2.83824E+07 4.73041E+05  19710.      53.963    
         TOTAL TIME 4.85655E+09 8.09425E+07 1.34904E+06  56210.      153.89    
1
 
 SOLVING FOR HEAD 

 CELL CONVERSIONS FOR ITER.=  2  LAYER=  1  STEP=109  PERIOD=   2   (ROW,COL)
    DRY( 15, 33)   

 CELL CONVERSIONS FOR ITER.=  5  LAYER=  1  STEP=109  PERIOD=   2   (ROW,COL)
    DRY( 10, 27)   
    10 CALLS TO PCG ROUTINE FOR TIME STEP 109 IN STRESS PERIOD    2
    27 TOTAL ITERATIONS

 MAXIMUM HEAD CHANGE FOR EACH ITERATION (1 INDICATES THE FIRST INNER ITERATION):

    HEAD CHANGE    HEAD CHANGE    HEAD CHANGE    HEAD CHANGE    HEAD CHANGE 
   LAYER,ROW,COL  LAYER,ROW,COL  LAYER,ROW,COL  LAYER,ROW,COL  LAYER,ROW,COL
 ---------------------------------------------------------------------------
  1  0.3278      0  0.1171      0 -0.2584E-01  0 -0.6730E-02  0 -0.1848E-02
   (  2, 19, 11)  (  1, 17, 12)  (  1, 17, 11)  (  2, 12, 11)  (  1, 16, 12)
  0 -0.5536E-03  1 -0.6124E-01  0  0.1367E-01  0  0.1840E-02  0  0.5869E-03
   (  1, 18, 12)  (  2, 15, 33)  (  2, 15, 33)  (  2, 15, 33)  (  2, 14, 35)
  1 -0.3509E-02  0 -0.2384E-03  1  0.2650E-02  0  0.4565E-03  1 -0.3780E-01
   (  2, 10, 21)  (  2, 11, 19)  (  2, 55, 32)  (  2, 10, 27)  (  2, 10, 27)
  0 -0.4771E-02  0 -0.1259E-02  0 -0.3097E-03  1  0.1424E-02  0  0.4913E-03
   (  2,  9, 29)  (  2,  9, 28)  (  2,  6, 30)  (  2, 55, 32)  (  2, 55, 32)
  1 -0.1477E-02  0 -0.8484E-04  1  0.1299E-02  0  0.2664E-04  1 -0.1117E-02
   (  2, 55, 32)  (  2, 55, 32)  (  2, 55, 32)  (  2, 55, 32)  (  2, 55, 32)
  0 -0.1493E-04  1  0.9559E-03
   (  2, 55, 32)  (  2, 55, 32)

 MAXIMUM RESIDUAL FOR EACH ITERATION (1 INDICATES THE FIRST INNER ITERATION):

    RESIDUAL       RESIDUAL       RESIDUAL       RESIDUAL       RESIDUAL    
   LAYER,ROW,COL  LAYER,ROW,COL  LAYER,ROW,COL  LAYER,ROW,COL  LAYER,ROW,COL
 ---------------------------------------------------------------------------
  1 -0.7874E-03  0  0.1821E-03  0 -0.5519E-04  0 -0.2130E-04  0  0.7689E-05
   (  1, 17, 12)  (  2, 18, 11)  (  2, 13,  9)  (  1, 18, 11)  (  1, 17, 12)
  0  0.2570E-05  1  0.5913E-03  0  0.5505E-04  0  0.1228E-04  0  0.3129E-05
   (  1, 17, 12)  (  1, 10, 27)  (  1, 10, 27)  (  1, 10, 27)  (  1, 10, 27)
  1  0.7226E-05  0  0.1437E-05  1 -0.2597E-03  0 -0.3432E-04  1  0.2283E-04
   (  1, 10, 27)  (  1, 10, 27)  (  2, 10, 27)  (  2, 10, 27)  (  2, 10, 27)
  0  0.8831E-05  0  0.1736E-05  0  0.4996E-06  1 -0.1940E-06  0 -0.9500E-07
   (  2, 11, 26)  (  2,  9, 28)  (  2, 12, 25)  (  2,  6, 11)  (  2, 11, 24)
  1  0.7528E-07  0  0.2640E-07  1 -0.3443E-07  0  0.1435E-07  1 -0.2028E-07
   (  2, 11, 24)  (  2, 11, 24)  (  2,  5, 11)  (  2, 53, 33)  (  2, 53, 33)
  0 -0.1113E-07  1  0.1709E-07
   (  2, 53, 33)  (  2, 53, 33)



 OUTPUT CONTROL FOR STRESS PERIOD    2   TIME STEP  109
    SAVE HEAD FOR ALL LAYERS
    SAVE DRAWDOWN FOR ALL LAYERS
    SAVE BUDGET
    PRINT BUDGET
 UBDSV1 SAVING "         STORAGE" ON UNIT   9 AT TIME STEP109, STRESS PERIOD   2
 UBDSV2 SAVING "   CONSTANT HEAD" ON UNIT   9 AT TIME STEP109, STRESS PERIOD   2
 UBDSV1 SAVING "FLOW RIGHT FACE " ON UNIT   9 AT TIME STEP109, STRESS PERIOD   2
 UBDSV1 SAVING "FLOW FRONT FACE " ON UNIT   9 AT TIME STEP109, STRESS PERIOD   2
 UBDSV1 SAVING "FLOW LOWER FACE " ON UNIT   9 AT TIME STEP109, STRESS PERIOD   2
 UBDSV4 SAVING "           WELLS" ON UNIT   9 AT TIME STEP109, STRESS PERIOD   2
 UBDSV4 SAVING "   RIVER LEAKAGE" ON UNIT   9 AT TIME STEP109, STRESS PERIOD   2
 UBDSV3 SAVING "              ET" ON UNIT   9 AT TIME STEP109, STRESS PERIOD   2
 UBDSV4 SAVING " HEAD DEP BOUNDS" ON UNIT   9 AT TIME STEP109, STRESS PERIOD   2
 UBDSV3 SAVING "        RECHARGE" ON UNIT   9 AT TIME STEP109, STRESS PERIOD   2
 SOLVING FOR ZETA FOR LAYER     1 ZONE     2
     2 CALLS TO PCG ROUTINE FOR TIME STEP 109 IN STRESS PERIOD    2
     4 TOTAL ITERATIONS

 MAXIMUM HEAD CHANGE FOR EACH ITERATION (1 INDICATES THE FIRST INNER ITERATION):

    HEAD CHANGE    HEAD CHANGE    HEAD CHANGE    HEAD CHANGE    HEAD CHANGE 
   LAYER,ROW,COL  LAYER,ROW,COL  LAYER,ROW,COL  LAYER,ROW,COL  LAYER,ROW,COL
 ---------------------------------------------------------------------------
  1   17.13      0  0.7809E-02  0  0.1191E-03  1  0.7078E-06
   (  1, 16, 10)  (  1, 27,  5)  (  1, 26,  6)  (  1, 16, 10)

 MAXIMUM RESIDUAL FOR EACH ITERATION (1 INDICATES THE FIRST INNER ITERATION):

    RESIDUAL       RESIDUAL       RESIDUAL       RESIDUAL       RESIDUAL    
   LAYER,ROW,COL  LAYER,ROW,COL  LAYER,ROW,COL  LAYER,ROW,COL  LAYER,ROW,COL
 ---------------------------------------------------------------------------
  1 -0.2278E-05  0 -0.3813E-07  0 -0.1798E-09  1 -0.3932E-11
   (  1, 27,  5)  (  1, 26,  6)  (  1,  8,  3)  (  1,  9,  2)


 SOLVING FOR ZETA FOR LAYER     2 ZONE     2
     2 CALLS TO PCG ROUTINE FOR TIME STEP 109 IN STRESS PERIOD    2
     4 TOTAL ITERATIONS

 MAXIMUM HEAD CHANGE FOR EACH ITERATION (1 INDICATES THE FIRST INNER ITERATION):

    HEAD CHANGE    HEAD CHANGE    HEAD CHANGE    HEAD CHANGE    HEAD CHANGE 
   LAYER,ROW,COL  LAYER,ROW,COL  LAYER,ROW,COL  LAYER,ROW,COL  LAYER,ROW,COL
 ---------------------------------------------------------------------------
  1   8.482      0  0.1150      0  0.5310E-03  1  0.8385E-05
   (  1, 17, 11)  (  1, 16, 12)  (  1, 10, 10)  (  1,  9, 11)

 MAXIMUM RESIDUAL FOR EACH ITERATION (1 INDICATES THE FIRST INNER ITERATION):

    RESIDUAL       RESIDUAL       RESIDUAL       RESIDUAL       RESIDUAL    
   LAYER,ROW,COL  LAYER,ROW,COL  LAYER,ROW,COL  LAYER,ROW,COL  LAYER,ROW,COL
 ---------------------------------------------------------------------------
  1 -0.3231E-04  0  0.1857E-06  0 -0.3472E-08  1 -0.6209E-10
   (  1, 16, 12)  (  1, 18, 11)  (  1,  9, 11)  (  1, 10, 10)


 UBUDSV SAVING "      ZETASRF  1" ON UNIT170 AT TIME STEP109, STRESS PERIOD    2


                      VOLUMETRIC SWI ZONE BUDGET FOR ENTIRE MODEL
                     AT END OF TIME STEP  109 IN STRESS PERIOD   2
                                      ZONE     1
  -----------------------------------------------------------------------------------

        CUMULATIVE VOLUMES      L**3       RATES FOR THIS TIME STEP      L**3/T
        ------------------                 ------------------------

              IN:                                      IN:
              ---                                      ---
             BOUNDARIES =   858507648.0000            BOUNDARIES =           0.1786
          CONSTANT HEAD =           0.0000         CONSTANT HEAD =           0.0000
            ZONE CHANGE =   221000816.0000           ZONE CHANGE =       3.7872E-02
       ZONE CHG TIP/TOE =    14880846.0000      ZONE CHG TIP/TOE =       1.0293E-02
            ZONE MIXING =           0.0000           ZONE MIXING =           0.0000

               TOTAL IN =  1094389248.0000              TOTAL IN =           0.2268

             OUT:                                     OUT:
             ----                                     ----
             BOUNDARIES =   992200832.0000            BOUNDARIES =           0.2015
          CONSTANT HEAD =           0.0000         CONSTANT HEAD =           0.0000
            ZONE CHANGE =    36797324.0000           ZONE CHANGE =       1.0022E-02
       ZONE CHG TIP/TOE =    11647590.0000      ZONE CHG TIP/TOE =       4.0589E-03
            ZONE MIXING =     2205197.2500           ZONE MIXING =       1.2264E-02

              TOTAL OUT =  1042850944.0000             TOTAL OUT =           0.2279

               IN - OUT =    51538304.0000              IN - OUT =      -1.0780E-03

    PERCENT DISCREPANCY =           4.82     PERCENT DISCREPANCY =          -0.47



                      VOLUMETRIC SWI ZONE BUDGET FOR ENTIRE MODEL
                     AT END OF TIME STEP  109 IN STRESS PERIOD   2
                                      ZONE     2
  -----------------------------------------------------------------------------------

        CUMULATIVE VOLUMES      L**3       RATES FOR THIS TIME STEP      L**3/T
        ------------------                 ------------------------

              IN:                                      IN:
              ---                                      ---
             BOUNDARIES =   178243584.0000            BOUNDARIES =           0.1410
          CONSTANT HEAD =           0.0000         CONSTANT HEAD =           0.0000
            ZONE CHANGE =    30974216.0000           ZONE CHANGE =       6.5539E-03
       ZONE CHG TIP/TOE =    34829980.0000      ZONE CHG TIP/TOE =       1.1763E-02
            ZONE MIXING =     2205197.2500           ZONE MIXING =       1.2264E-02

               TOTAL IN =   246252976.0000              TOTAL IN =           0.1716

             OUT:                                     OUT:
             ----                                     ----
             BOUNDARIES =   152186144.0000            BOUNDARIES =           0.1489
          CONSTANT HEAD =           0.0000         CONSTANT HEAD =           0.0000
            ZONE CHANGE =    78811208.0000           ZONE CHANGE =       1.9865E-02
       ZONE CHG TIP/TOE =     9501436.0000      ZONE CHG TIP/TOE =       6.8934E-03
            ZONE MIXING =           0.0000           ZONE MIXING =           0.0000

              TOTAL OUT =   240498784.0000             TOTAL OUT =           0.1756

               IN - OUT =     5754192.0000              IN - OUT =      -4.0358E-03

    PERCENT DISCREPANCY =           2.36     PERCENT DISCREPANCY =          -2.32


 HEAD WILL BE SAVED ON UNIT   37 AT END OF TIME STEP  109, STRESS PERIOD    2

 DRAWDOWN WILL BE SAVED ON UNIT   38 AT END OF TIME STEP  109, STRESS PERIOD    2
1
  VOLUMETRIC BUDGET FOR ENTIRE MODEL AT END OF TIME STEP  109, STRESS PERIOD   2
  ------------------------------------------------------------------------------

     CUMULATIVE VOLUMES      L**3       RATES FOR THIS TIME STEP      L**3/T
     ------------------                 ------------------------

           IN:                                      IN:
           ---                                      ---
             STORAGE =   102375384.0000               STORAGE =       3.1126E-02
       CONSTANT HEAD =           0.0000         CONSTANT HEAD =           0.0000
               WELLS =           0.0000                 WELLS =           0.0000
       RIVER LEAKAGE =   177376384.0000         RIVER LEAKAGE =       3.4000E-02
                  ET =           0.0000                    ET =           0.0000
     HEAD DEP BOUNDS =   190620592.0000       HEAD DEP BOUNDS =           0.1460
            RECHARGE =   728746688.0000              RECHARGE =           0.1592
          SWIADDTOCH =           0.0000            SWIADDTOCH =           0.0000

            TOTAL IN =  1199119104.0000              TOTAL IN =           0.3704

          OUT:                                     OUT:
          ----                                     ----
             STORAGE =      208308.2188               STORAGE =       3.6951E-04
       CONSTANT HEAD =           0.0000         CONSTANT HEAD =           0.0000
               WELLS =   654151488.0000                 WELLS =           0.3700
       RIVER LEAKAGE =    21630804.0000         RIVER LEAKAGE =           0.0000
                  ET =   166413648.0000                    ET =           0.0000
     HEAD DEP BOUNDS =   356727456.0000       HEAD DEP BOUNDS =           0.0000
            RECHARGE =           0.0000              RECHARGE =           0.0000
          SWIADDTOCH =           0.0000            SWIADDTOCH =           0.0000

           TOTAL OUT =  1199131648.0000             TOTAL OUT =           0.3704

            IN - OUT =      -12544.0000              IN - OUT =       2.9802E-08

 PERCENT DISCREPANCY =          -0.00     PERCENT DISCREPANCY =           0.00






         TIME SUMMARY AT END OF TIME STEP  109 IN STRESS PERIOD    2
                    SECONDS     MINUTES      HOURS       DAYS        YEARS
                    -----------------------------------------------------------
   TIME STEP LENGTH 1.57680E+07 2.62800E+05  4380.0      182.50     0.49966    
 STRESS PERIOD TIME 1.71871E+09 2.86452E+07 4.77421E+05  19893.      54.463    
         TOTAL TIME 4.87232E+09 8.12053E+07 1.35342E+06  56393.      154.39    
1
 
 SOLVING FOR HEAD 

 CELL CONVERSIONS FOR ITER.=  2  LAYER=  1  STEP=110  PERIOD=   2   (ROW,COL)
    DRY(  5, 24)   
    10 CALLS TO PCG ROUTINE FOR TIME STEP 110 IN STRESS PERIOD    2
    25 TOTAL ITERATIONS

 MAXIMUM HEAD CHANGE FOR EACH ITERATION (1 INDICATES THE FIRST INNER ITERATION):

    HEAD CHANGE    HEAD CHANGE    HEAD CHANGE    HEAD CHANGE    HEAD CHANGE 
   LAYER,ROW,COL  LAYER,ROW,COL  LAYER,ROW,COL  LAYER,ROW,COL  LAYER,ROW,COL
 ---------------------------------------------------------------------------
  1 -0.3296      0 -0.9962E-01  0 -0.2837E-01  0  0.7646E-02  0 -0.1977E-02
   (  2, 18, 11)  (  1, 15, 12)  (  1, 19, 12)  (  2,  5, 11)  (  2,  6, 12)
  0  0.5561E-03  1 -0.3515E-01  0  0.4130E-02  0  0.1286E-02  0 -0.3520E-03
   (  1, 17, 12)  (  2,  5, 24)  (  2, 55, 31)  (  2, 55, 31)  (  2,  1, 28)
  1 -0.3254E-02  0 -0.3506E-03  1  0.1657E-02  0  0.2236E-03  1 -0.1516E-02
   (  2, 55, 31)  (  2, 55, 31)  (  2, 55, 32)  (  2, 55, 32)  (  2, 55, 32)
  0 -0.1120E-03  1  0.1398E-02  0  0.5511E-04  1 -0.1295E-02  0 -0.2413E-04
   (  2, 55, 32)  (  2, 55, 32)  (  2, 55, 32)  (  2, 55, 32)  (  2, 55, 32)
  1  0.1189E-02  0  0.1624E-04  1 -0.1091E-02  0 -0.1302E-04  1  0.9990E-03
   (  2, 55, 32)  (  2, 55, 32)  (  2, 55, 32)  (  2, 55, 32)  (  2, 55, 32)

 MAXIMUM RESIDUAL FOR EACH ITERATION (1 INDICATES THE FIRST INNER ITERATION):

    RESIDUAL       RESIDUAL       RESIDUAL       RESIDUAL       RESIDUAL    
   LAYER,ROW,COL  LAYER,ROW,COL  LAYER,ROW,COL  LAYER,ROW,COL  LAYER,ROW,COL
 ---------------------------------------------------------------------------
  1  0.5480E-03  0 -0.1869E-03  0 -0.5862E-04  0 -0.1844E-04  0 -0.7554E-05
   (  1, 17, 12)  (  2, 18, 11)  (  2, 18, 11)  (  2, 18, 11)  (  1, 17, 12)
  0 -0.2400E-05  1  0.2534E-04  0  0.9724E-05  0  0.2334E-05  0  0.5259E-06
   (  1, 17, 12)  (  2,  5, 24)  (  2,  6, 23)  (  2,  6, 23)  (  2,  7, 22)
  1  0.4230E-06  0 -0.1622E-06  1  0.2399E-06  0  0.1157E-06  1 -0.1411E-06
   (  2,  4, 18)  (  2, 12, 18)  (  2, 12, 18)  (  2, 12, 18)  (  2, 12, 18)
  0 -0.5757E-07  1  0.7556E-07  0  0.3279E-07  1 -0.4134E-07  0 -0.1399E-07
   (  2, 12, 18)  (  2, 12, 18)  (  2, 12, 18)  (  2, 12, 18)  (  2, 12, 18)
  1  0.2027E-07  0  0.1175E-07  1 -0.1872E-07  0 -0.9545E-08  1  0.1685E-07
   (  2, 53, 33)  (  2, 53, 33)  (  2, 53, 33)  (  2, 53, 33)  (  2, 53, 33)



 OUTPUT CONTROL FOR STRESS PERIOD    2   TIME STEP  110
    SAVE HEAD FOR ALL LAYERS
    SAVE DRAWDOWN FOR ALL LAYERS
    SAVE BUDGET
    PRINT BUDGET
 UBDSV1 SAVING "         STORAGE" ON UNIT   9 AT TIME STEP110, STRESS PERIOD   2
 UBDSV2 SAVING "   CONSTANT HEAD" ON UNIT   9 AT TIME STEP110, STRESS PERIOD   2
 UBDSV1 SAVING "FLOW RIGHT FACE " ON UNIT   9 AT TIME STEP110, STRESS PERIOD   2
 UBDSV1 SAVING "FLOW FRONT FACE " ON UNIT   9 AT TIME STEP110, STRESS PERIOD   2
 UBDSV1 SAVING "FLOW LOWER FACE " ON UNIT   9 AT TIME STEP110, STRESS PERIOD   2
 UBDSV4 SAVING "           WELLS" ON UNIT   9 AT TIME STEP110, STRESS PERIOD   2
 UBDSV4 SAVING "   RIVER LEAKAGE" ON UNIT   9 AT TIME STEP110, STRESS PERIOD   2
 UBDSV3 SAVING "              ET" ON UNIT   9 AT TIME STEP110, STRESS PERIOD   2
 UBDSV4 SAVING " HEAD DEP BOUNDS" ON UNIT   9 AT TIME STEP110, STRESS PERIOD   2
 UBDSV3 SAVING "        RECHARGE" ON UNIT   9 AT TIME STEP110, STRESS PERIOD   2
 SOLVING FOR ZETA FOR LAYER     1 ZONE     2
     2 CALLS TO PCG ROUTINE FOR TIME STEP 110 IN STRESS PERIOD    2
     4 TOTAL ITERATIONS

 MAXIMUM HEAD CHANGE FOR EACH ITERATION (1 INDICATES THE FIRST INNER ITERATION):

    HEAD CHANGE    HEAD CHANGE    HEAD CHANGE    HEAD CHANGE    HEAD CHANGE 
   LAYER,ROW,COL  LAYER,ROW,COL  LAYER,ROW,COL  LAYER,ROW,COL  LAYER,ROW,COL
 ---------------------------------------------------------------------------
  1   34.93      0  0.1411      0 -0.7612E-03  1  0.3528E-05
   (  1, 20,  9)  (  1, 19, 10)  (  1, 16,  7)  (  1, 18,  9)

 MAXIMUM RESIDUAL FOR EACH ITERATION (1 INDICATES THE FIRST INNER ITERATION):

    RESIDUAL       RESIDUAL       RESIDUAL       RESIDUAL       RESIDUAL    
   LAYER,ROW,COL  LAYER,ROW,COL  LAYER,ROW,COL  LAYER,ROW,COL  LAYER,ROW,COL
 ---------------------------------------------------------------------------
  1 -0.4342E-04  0 -0.2402E-06  0 -0.1173E-08  1 -0.1080E-10
   (  1, 19, 10)  (  1, 15,  8)  (  1, 18,  9)  (  1, 15,  8)


 SOLVING FOR ZETA FOR LAYER     2 ZONE     2
     2 CALLS TO PCG ROUTINE FOR TIME STEP 110 IN STRESS PERIOD    2
     4 TOTAL ITERATIONS

 MAXIMUM HEAD CHANGE FOR EACH ITERATION (1 INDICATES THE FIRST INNER ITERATION):

    HEAD CHANGE    HEAD CHANGE    HEAD CHANGE    HEAD CHANGE    HEAD CHANGE 
   LAYER,ROW,COL  LAYER,ROW,COL  LAYER,ROW,COL  LAYER,ROW,COL  LAYER,ROW,COL
 ---------------------------------------------------------------------------
  1  -6.645      0  0.3433E-01  0  0.5245E-03  1  0.6120E-05
   (  1, 17, 12)  (  1,  7, 10)  (  1, 10, 10)  (  1,  9, 11)

 MAXIMUM RESIDUAL FOR EACH ITERATION (1 INDICATES THE FIRST INNER ITERATION):

    RESIDUAL       RESIDUAL       RESIDUAL       RESIDUAL       RESIDUAL    
   LAYER,ROW,COL  LAYER,ROW,COL  LAYER,ROW,COL  LAYER,ROW,COL  LAYER,ROW,COL
 ---------------------------------------------------------------------------
  1 -0.1164E-04  0 -0.1783E-06  0 -0.2628E-08  1 -0.4333E-10
   (  1, 10, 11)  (  1, 10, 10)  (  1,  9, 11)  (  1, 10, 10)


 UBUDSV SAVING "      ZETASRF  1" ON UNIT170 AT TIME STEP110, STRESS PERIOD    2


                      VOLUMETRIC SWI ZONE BUDGET FOR ENTIRE MODEL
                     AT END OF TIME STEP  110 IN STRESS PERIOD   2
                                      ZONE     1
  -----------------------------------------------------------------------------------

        CUMULATIVE VOLUMES      L**3       RATES FOR THIS TIME STEP      L**3/T
        ------------------                 ------------------------

              IN:                                      IN:
              ---                                      ---
             BOUNDARIES =   861326336.0000            BOUNDARIES =           0.1788
          CONSTANT HEAD =           0.0000         CONSTANT HEAD =           0.0000
            ZONE CHANGE =   221651408.0000           ZONE CHANGE =       4.1260E-02
       ZONE CHG TIP/TOE =    14950397.0000      ZONE CHG TIP/TOE =       4.4109E-03
            ZONE MIXING =           0.0000           ZONE MIXING =           0.0000

               TOTAL IN =  1097928192.0000              TOTAL IN =           0.2244

             OUT:                                     OUT:
             ----                                     ----
             BOUNDARIES =   997163584.0000            BOUNDARIES =           0.3147
          CONSTANT HEAD =           0.0000         CONSTANT HEAD =           0.0000
            ZONE CHANGE =    36928764.0000           ZONE CHANGE =       8.3357E-03
       ZONE CHG TIP/TOE =    11695590.0000      ZONE CHG TIP/TOE =       3.0441E-03
            ZONE MIXING =     2205197.2500           ZONE MIXING =           0.0000

              TOTAL OUT =  1047993152.0000             TOTAL OUT =           0.3261

               IN - OUT =    49935040.0000              IN - OUT =          -0.1017

    PERCENT DISCREPANCY =           4.65     PERCENT DISCREPANCY =         -36.94



                      VOLUMETRIC SWI ZONE BUDGET FOR ENTIRE MODEL
                     AT END OF TIME STEP  110 IN STRESS PERIOD   2
                                      ZONE     2
  -----------------------------------------------------------------------------------

        CUMULATIVE VOLUMES      L**3       RATES FOR THIS TIME STEP      L**3/T
        ------------------                 ------------------------

              IN:                                      IN:
              ---                                      ---
             BOUNDARIES =   180470656.0000            BOUNDARIES =           0.1412
          CONSTANT HEAD =           0.0000         CONSTANT HEAD =           0.0000
            ZONE CHANGE =    31070518.0000           ZONE CHANGE =       6.1075E-03
       ZONE CHG TIP/TOE =    36429200.0000      ZONE CHG TIP/TOE =           0.1014
            ZONE MIXING =     2205197.2500           ZONE MIXING =           0.0000

               TOTAL IN =   250175568.0000              TOTAL IN =           0.2488

             OUT:                                     OUT:
             ----                                     ----
             BOUNDARIES =   152748560.0000            BOUNDARIES =       3.5668E-02
          CONSTANT HEAD =           0.0000         CONSTANT HEAD =           0.0000
            ZONE CHANGE =    80615736.0000           ZONE CHANGE =           0.1144
       ZONE CHG TIP/TOE =     9533436.0000      ZONE CHG TIP/TOE =       2.0294E-03
            ZONE MIXING =           0.0000           ZONE MIXING =           0.0000

              TOTAL OUT =   242897728.0000             TOTAL OUT =           0.1521

               IN - OUT =     7277840.0000              IN - OUT =       9.6629E-02

    PERCENT DISCREPANCY =           2.95     PERCENT DISCREPANCY =          48.20


 HEAD WILL BE SAVED ON UNIT   37 AT END OF TIME STEP  110, STRESS PERIOD    2

 DRAWDOWN WILL BE SAVED ON UNIT   38 AT END OF TIME STEP  110, STRESS PERIOD    2
1
  VOLUMETRIC BUDGET FOR ENTIRE MODEL AT END OF TIME STEP  110, STRESS PERIOD   2
  ------------------------------------------------------------------------------

     CUMULATIVE VOLUMES      L**3       RATES FOR THIS TIME STEP      L**3/T
     ------------------                 ------------------------

           IN:                                      IN:
           ---                                      ---
             STORAGE =   102859000.0000               STORAGE =       3.0671E-02
       CONSTANT HEAD =           0.0000         CONSTANT HEAD =           0.0000
               WELLS =           0.0000                 WELLS =           0.0000
       RIVER LEAKAGE =   177912496.0000         RIVER LEAKAGE =       3.4000E-02
                  ET =           0.0000                    ET =           0.0000
     HEAD DEP BOUNDS =   192931232.0000       HEAD DEP BOUNDS =           0.1465
            RECHARGE =   731254720.0000              RECHARGE =           0.1591
          SWIADDTOCH =           0.0000            SWIADDTOCH =           0.0000

            TOTAL IN =  1204957440.0000              TOTAL IN =           0.3703

          OUT:                                     OUT:
          ----                                     ----
             STORAGE =      212526.1875               STORAGE =       2.6750E-04
       CONSTANT HEAD =           0.0000         CONSTANT HEAD =           0.0000
               WELLS =   659985664.0000                 WELLS =           0.3700
       RIVER LEAKAGE =    21630804.0000         RIVER LEAKAGE =           0.0000
                  ET =   166413648.0000                    ET =           0.0000
     HEAD DEP BOUNDS =   356727456.0000       HEAD DEP BOUNDS =           0.0000
            RECHARGE =           0.0000              RECHARGE =           0.0000
          SWIADDTOCH =           0.0000            SWIADDTOCH =           0.0000

           TOTAL OUT =  1204970112.0000             TOTAL OUT =           0.3703

            IN - OUT =      -12672.0000              IN - OUT =           0.0000

 PERCENT DISCREPANCY =          -0.00     PERCENT DISCREPANCY =           0.00






         TIME SUMMARY AT END OF TIME STEP  110 IN STRESS PERIOD    2
                    SECONDS     MINUTES      HOURS       DAYS        YEARS
                    -----------------------------------------------------------
   TIME STEP LENGTH 1.57680E+07 2.62800E+05  4380.0      182.50     0.49966    
 STRESS PERIOD TIME 1.73448E+09 2.89080E+07 4.81801E+05  20075.      54.962    
         TOTAL TIME 4.88809E+09 8.14681E+07 1.35780E+06  56575.      154.89    
1
 
 SOLVING FOR HEAD 

 CELL CONVERSIONS FOR ITER.=  2  LAYER=  2  STEP=111  PERIOD=   2   (ROW,COL)
    DRY( 52, 38)   
    19 CALLS TO PCG ROUTINE FOR TIME STEP 111 IN STRESS PERIOD    2
    43 TOTAL ITERATIONS

 MAXIMUM HEAD CHANGE FOR EACH ITERATION (1 INDICATES THE FIRST INNER ITERATION):

    HEAD CHANGE    HEAD CHANGE    HEAD CHANGE    HEAD CHANGE    HEAD CHANGE 
   LAYER,ROW,COL  LAYER,ROW,COL  LAYER,ROW,COL  LAYER,ROW,COL  LAYER,ROW,COL
 ---------------------------------------------------------------------------
  1 -0.3368      0  0.1040      0 -0.2617E-01  0  0.6633E-02  0 -0.2182E-02
   (  2, 16, 12)  (  1, 15, 12)  (  2, 14, 11)  (  1, 13, 10)  (  1, 19, 12)
  0  0.7445E-03  1  0.1151E-01  0  0.4962E-02  0  0.1463E-02  0  0.3631E-03
   (  2,  5, 11)  (  2, 53, 37)  (  2, 53, 37)  (  2, 53, 37)  (  2, 53, 37)
  1 -0.3792E-02  0 -0.2903E-03  1  0.1480E-02  0  0.1675E-03  1 -0.1398E-02
   (  2, 55, 31)  (  2, 55, 31)  (  2, 55, 32)  (  2, 55, 32)  (  2, 55, 32)
  0 -0.1136E-03  1  0.1366E-02  0  0.5913E-04  1 -0.1342E-02  0 -0.2809E-04
   (  2, 55, 32)  (  2, 55, 32)  (  2, 55, 32)  (  2, 55, 32)  (  2, 55, 32)
  1  0.1313E-02  0  0.1608E-04  1 -0.1282E-02  0 -0.1197E-04  1  0.1251E-02
   (  2, 55, 32)  (  2, 55, 32)  (  2, 55, 32)  (  2, 55, 32)  (  2, 55, 32)
  0  0.1050E-04  1 -0.1219E-02  0 -0.9875E-05  1  0.1189E-02  0 -0.9645E-05
   (  2, 55, 32)  (  2, 55, 32)  (  2, 55, 32)  (  2, 55, 32)  (  2, 53, 33)
  1 -0.1160E-02  0  0.9269E-05  1  0.1131E-02  0 -0.9150E-05  1 -0.1104E-02
   (  2, 55, 32)  (  2, 53, 33)  (  2, 55, 32)  (  2, 53, 33)  (  2, 55, 32)
  0  0.8846E-05  1  0.1077E-02  0 -0.8692E-05  1 -0.1050E-02  0  0.8431E-05
   (  2, 53, 33)  (  2, 55, 32)  (  2, 53, 33)  (  2, 55, 32)  (  2, 53, 33)
  1  0.1024E-02  0 -0.8256E-05  1 -0.9994E-03
   (  2, 55, 32)  (  2, 53, 33)  (  2, 55, 32)

 MAXIMUM RESIDUAL FOR EACH ITERATION (1 INDICATES THE FIRST INNER ITERATION):

    RESIDUAL       RESIDUAL       RESIDUAL       RESIDUAL       RESIDUAL    
   LAYER,ROW,COL  LAYER,ROW,COL  LAYER,ROW,COL  LAYER,ROW,COL  LAYER,ROW,COL
 ---------------------------------------------------------------------------
  1  0.6126E-03  0  0.1761E-03  0  0.6258E-04  0 -0.2280E-04  0  0.6114E-05
   (  1, 13, 10)  (  2, 20, 10)  (  2, 13,  9)  (  1, 13, 10)  (  2, 13, 10)
  0  0.2107E-05  1 -0.4858E-05  0  0.1851E-05  0 -0.4849E-06  0  0.2024E-06
   (  1, 16, 12)  (  2, 18, 13)  (  2, 13,  9)  (  2, 12,  9)  (  2, 18, 11)
  1 -0.4137E-06  0 -0.1167E-06  1  0.2094E-06  0  0.1096E-06  1 -0.1444E-06
   (  2, 18, 11)  (  2, 12, 18)  (  2, 12, 18)  (  2, 12, 18)  (  2, 12, 18)
  0 -0.6101E-07  1  0.8194E-07  0  0.3737E-07  1 -0.5156E-07  0 -0.1988E-07
   (  2, 12, 18)  (  2, 12, 18)  (  2, 12, 18)  (  2, 12, 18)  (  2, 12, 18)
  1  0.2746E-07  0  0.1228E-07  1  0.2108E-07  0 -0.1157E-07  1 -0.2064E-07
   (  2, 12, 18)  (  2, 53, 33)  (  2, 53, 32)  (  2, 53, 33)  (  2, 53, 32)
  0  0.1094E-07  1  0.2005E-07  0 -0.1071E-07  1 -0.1959E-07  0  0.1029E-07
   (  2, 53, 33)  (  2, 53, 32)  (  2, 53, 33)  (  2, 53, 32)  (  2, 53, 33)
  1  0.1905E-07  0 -0.1012E-07  1 -0.1861E-07  0  0.9796E-08  1  0.1812E-07
   (  2, 53, 32)  (  2, 53, 33)  (  2, 53, 32)  (  2, 53, 33)  (  2, 53, 32)
  0 -0.9612E-08  1 -0.1770E-07  0  0.9337E-08  1  0.1725E-07  0 -0.9136E-08
   (  2, 53, 33)  (  2, 53, 32)  (  2, 53, 33)  (  2, 53, 32)  (  2, 53, 33)
  1 -0.1683E-07  0  0.8889E-08  1  0.1641E-07
   (  2, 53, 32)  (  2, 53, 33)  (  2, 53, 32)



 OUTPUT CONTROL FOR STRESS PERIOD    2   TIME STEP  111
    SAVE HEAD FOR ALL LAYERS
    SAVE DRAWDOWN FOR ALL LAYERS
    SAVE BUDGET
    PRINT BUDGET
 UBDSV1 SAVING "         STORAGE" ON UNIT   9 AT TIME STEP111, STRESS PERIOD   2
 UBDSV2 SAVING "   CONSTANT HEAD" ON UNIT   9 AT TIME STEP111, STRESS PERIOD   2
 UBDSV1 SAVING "FLOW RIGHT FACE " ON UNIT   9 AT TIME STEP111, STRESS PERIOD   2
 UBDSV1 SAVING "FLOW FRONT FACE " ON UNIT   9 AT TIME STEP111, STRESS PERIOD   2
 UBDSV1 SAVING "FLOW LOWER FACE " ON UNIT   9 AT TIME STEP111, STRESS PERIOD   2
 UBDSV4 SAVING "           WELLS" ON UNIT   9 AT TIME STEP111, STRESS PERIOD   2
 UBDSV4 SAVING "   RIVER LEAKAGE" ON UNIT   9 AT TIME STEP111, STRESS PERIOD   2
 UBDSV3 SAVING "              ET" ON UNIT   9 AT TIME STEP111, STRESS PERIOD   2
 UBDSV4 SAVING " HEAD DEP BOUNDS" ON UNIT   9 AT TIME STEP111, STRESS PERIOD   2
 UBDSV3 SAVING "        RECHARGE" ON UNIT   9 AT TIME STEP111, STRESS PERIOD   2
 SOLVING FOR ZETA FOR LAYER     1 ZONE     2
     2 CALLS TO PCG ROUTINE FOR TIME STEP 111 IN STRESS PERIOD    2
     4 TOTAL ITERATIONS

 MAXIMUM HEAD CHANGE FOR EACH ITERATION (1 INDICATES THE FIRST INNER ITERATION):

    HEAD CHANGE    HEAD CHANGE    HEAD CHANGE    HEAD CHANGE    HEAD CHANGE 
   LAYER,ROW,COL  LAYER,ROW,COL  LAYER,ROW,COL  LAYER,ROW,COL  LAYER,ROW,COL
 ---------------------------------------------------------------------------
  1   10.99      0 -0.1913E-01  0  0.1300E-03  1  0.9450E-06
   (  1, 19, 11)  (  1, 13,  9)  (  1, 26,  6)  (  1, 25,  7)

 MAXIMUM RESIDUAL FOR EACH ITERATION (1 INDICATES THE FIRST INNER ITERATION):

    RESIDUAL       RESIDUAL       RESIDUAL       RESIDUAL       RESIDUAL    
   LAYER,ROW,COL  LAYER,ROW,COL  LAYER,ROW,COL  LAYER,ROW,COL  LAYER,ROW,COL
 ---------------------------------------------------------------------------
  1  0.5249E-05  0 -0.4241E-07  0 -0.2732E-09  1 -0.4524E-11
   (  1, 13,  9)  (  1, 26,  6)  (  1, 25,  7)  (  1,  9,  2)


 SOLVING FOR ZETA FOR LAYER     2 ZONE     2
     2 CALLS TO PCG ROUTINE FOR TIME STEP 111 IN STRESS PERIOD    2
     4 TOTAL ITERATIONS

 MAXIMUM HEAD CHANGE FOR EACH ITERATION (1 INDICATES THE FIRST INNER ITERATION):

    HEAD CHANGE    HEAD CHANGE    HEAD CHANGE    HEAD CHANGE    HEAD CHANGE 
   LAYER,ROW,COL  LAYER,ROW,COL  LAYER,ROW,COL  LAYER,ROW,COL  LAYER,ROW,COL
 ---------------------------------------------------------------------------
  1   8.556      0  0.4403E-01  0  0.5028E-03  1  0.6391E-05
   (  1, 17, 11)  (  1, 15, 12)  (  1, 10, 10)  (  1,  9, 11)

 MAXIMUM RESIDUAL FOR EACH ITERATION (1 INDICATES THE FIRST INNER ITERATION):

    RESIDUAL       RESIDUAL       RESIDUAL       RESIDUAL       RESIDUAL    
   LAYER,ROW,COL  LAYER,ROW,COL  LAYER,ROW,COL  LAYER,ROW,COL  LAYER,ROW,COL
 ---------------------------------------------------------------------------
  1 -0.1234E-04  0 -0.1737E-06  0 -0.2715E-08  1 -0.4792E-10
   (  1, 15, 12)  (  1, 10, 10)  (  1,  9, 11)  (  1, 10, 10)


 UBUDSV SAVING "      ZETASRF  1" ON UNIT170 AT TIME STEP111, STRESS PERIOD    2


                      VOLUMETRIC SWI ZONE BUDGET FOR ENTIRE MODEL
                     AT END OF TIME STEP  111 IN STRESS PERIOD   2
                                      ZONE     1
  -----------------------------------------------------------------------------------

        CUMULATIVE VOLUMES      L**3       RATES FOR THIS TIME STEP      L**3/T
        ------------------                 ------------------------

              IN:                                      IN:
              ---                                      ---
             BOUNDARIES =   864143936.0000            BOUNDARIES =           0.1787
          CONSTANT HEAD =           0.0000         CONSTANT HEAD =           0.0000
            ZONE CHANGE =   222270880.0000           ZONE CHANGE =       3.9287E-02
       ZONE CHG TIP/TOE =    15040021.0000      ZONE CHG TIP/TOE =       5.6839E-03
            ZONE MIXING =           0.0000           ZONE MIXING =           0.0000

               TOTAL IN =  1101454848.0000              TOTAL IN =           0.2237

             OUT:                                     OUT:
             ----                                     ----
             BOUNDARIES =  1000369984.0000            BOUNDARIES =           0.2034
          CONSTANT HEAD =           0.0000         CONSTANT HEAD =           0.0000
            ZONE CHANGE =    37105588.0000           ZONE CHANGE =       1.1214E-02
       ZONE CHG TIP/TOE =    11738649.0000      ZONE CHG TIP/TOE =       2.7308E-03
            ZONE MIXING =     2396162.5000           ZONE MIXING =       1.2111E-02

              TOTAL OUT =  1051610368.0000             TOTAL OUT =           0.2294

               IN - OUT =    49844480.0000              IN - OUT =      -5.7448E-03

    PERCENT DISCREPANCY =           4.63     PERCENT DISCREPANCY =          -2.54



                      VOLUMETRIC SWI ZONE BUDGET FOR ENTIRE MODEL
                     AT END OF TIME STEP  111 IN STRESS PERIOD   2
                                      ZONE     2
  -----------------------------------------------------------------------------------

        CUMULATIVE VOLUMES      L**3       RATES FOR THIS TIME STEP      L**3/T
        ------------------                 ------------------------

              IN:                                      IN:
              ---                                      ---
             BOUNDARIES =   182704192.0000            BOUNDARIES =           0.1416
          CONSTANT HEAD =           0.0000         CONSTANT HEAD =           0.0000
            ZONE CHANGE =    31214920.0000           ZONE CHANGE =       9.1579E-03
       ZONE CHG TIP/TOE =    36577092.0000      ZONE CHG TIP/TOE =       9.3794E-03
            ZONE MIXING =     2396162.5000           ZONE MIXING =       1.2111E-02

               TOTAL IN =   252892368.0000              TOTAL IN =           0.1723

             OUT:                                     OUT:
             ----                                     ----
             BOUNDARIES =   155067296.0000            BOUNDARIES =           0.1471
          CONSTANT HEAD =           0.0000         CONSTANT HEAD =           0.0000
            ZONE CHANGE =    80946032.0000           ZONE CHANGE =       2.0947E-02
       ZONE CHG TIP/TOE =     9589436.0000      ZONE CHG TIP/TOE =       3.5515E-03
            ZONE MIXING =           0.0000           ZONE MIXING =           0.0000

              TOTAL OUT =   245602768.0000             TOTAL OUT =           0.1716

               IN - OUT =     7289600.0000              IN - OUT =       7.4604E-04

    PERCENT DISCREPANCY =           2.92     PERCENT DISCREPANCY =           0.43


 HEAD WILL BE SAVED ON UNIT   37 AT END OF TIME STEP  111, STRESS PERIOD    2

 DRAWDOWN WILL BE SAVED ON UNIT   38 AT END OF TIME STEP  111, STRESS PERIOD    2
1
  VOLUMETRIC BUDGET FOR ENTIRE MODEL AT END OF TIME STEP  111, STRESS PERIOD   2
  ------------------------------------------------------------------------------

     CUMULATIVE VOLUMES      L**3       RATES FOR THIS TIME STEP      L**3/T
     ------------------                 ------------------------

           IN:                                      IN:
           ---                                      ---
             STORAGE =   103337824.0000               STORAGE =       3.0367E-02
       CONSTANT HEAD =           0.0000         CONSTANT HEAD =           0.0000
               WELLS =           0.0000                 WELLS =           0.0000
       RIVER LEAKAGE =   178448608.0000         RIVER LEAKAGE =       3.4000E-02
                  ET =           0.0000                    ET =           0.0000
     HEAD DEP BOUNDS =   195247232.0000       HEAD DEP BOUNDS =           0.1469
            RECHARGE =   733762752.0000              RECHARGE =           0.1591
          SWIADDTOCH =           0.0000            SWIADDTOCH =           0.0000

            TOTAL IN =  1210796416.0000              TOTAL IN =           0.3703

          OUT:                                     OUT:
          ----                                     ----
             STORAGE =      217311.1094               STORAGE =       3.0346E-04
       CONSTANT HEAD =           0.0000         CONSTANT HEAD =           0.0000
               WELLS =   665819840.0000                 WELLS =           0.3700
       RIVER LEAKAGE =    21630804.0000         RIVER LEAKAGE =           0.0000
                  ET =   166413648.0000                    ET =           0.0000
     HEAD DEP BOUNDS =   356727456.0000       HEAD DEP BOUNDS =           0.0000
            RECHARGE =           0.0000              RECHARGE =           0.0000
          SWIADDTOCH =           0.0000            SWIADDTOCH =           0.0000

           TOTAL OUT =  1210808960.0000             TOTAL OUT =           0.3703

            IN - OUT =      -12544.0000              IN - OUT =       2.9802E-08

 PERCENT DISCREPANCY =          -0.00     PERCENT DISCREPANCY =           0.00






         TIME SUMMARY AT END OF TIME STEP  111 IN STRESS PERIOD    2
                    SECONDS     MINUTES      HOURS       DAYS        YEARS
                    -----------------------------------------------------------
   TIME STEP LENGTH 1.57680E+07 2.62800E+05  4380.0      182.50     0.49966    
 STRESS PERIOD TIME 1.75025E+09 2.91708E+07 4.86181E+05  20258.      55.462    
         TOTAL TIME 4.90386E+09 8.17309E+07 1.36218E+06  56758.      155.39    
1
 
 SOLVING FOR HEAD 

 CELL CONVERSIONS FOR ITER.=  2  LAYER=  1  STEP=112  PERIOD=   2   (ROW,COL)
    DRY( 16, 34)   

 CELL CONVERSIONS FOR ITER.=  2  LAYER=  2  STEP=112  PERIOD=   2   (ROW,COL)
    DRY( 55, 32)   
     5 CALLS TO PCG ROUTINE FOR TIME STEP 112 IN STRESS PERIOD    2
    15 TOTAL ITERATIONS

 MAXIMUM HEAD CHANGE FOR EACH ITERATION (1 INDICATES THE FIRST INNER ITERATION):

    HEAD CHANGE    HEAD CHANGE    HEAD CHANGE    HEAD CHANGE    HEAD CHANGE 
   LAYER,ROW,COL  LAYER,ROW,COL  LAYER,ROW,COL  LAYER,ROW,COL  LAYER,ROW,COL
 ---------------------------------------------------------------------------
  1 -0.3266      0 -0.1142      0 -0.2713E-01  0 -0.5756E-02  0 -0.1712E-02
   (  2, 17, 11)  (  1, 16, 12)  (  1, 19, 11)  (  1, 19, 11)  (  2,  6, 11)
  0  0.5448E-03  1 -0.3730E-01  0 -0.6854E-02  0  0.1143E-02  0  0.3637E-03
   (  2,  6, 11)  (  2, 16, 34)  (  2, 14, 35)  (  2, 53, 37)  (  2, 53, 37)
  1 -0.4676E-02  0 -0.3076E-03  1  0.1499E-02  0  0.1627E-03  1 -0.7016E-03
   (  2, 55, 31)  (  2, 55, 31)  (  2, 10, 21)  (  2, 10, 21)  (  2, 10, 21)

 MAXIMUM RESIDUAL FOR EACH ITERATION (1 INDICATES THE FIRST INNER ITERATION):

    RESIDUAL       RESIDUAL       RESIDUAL       RESIDUAL       RESIDUAL    
   LAYER,ROW,COL  LAYER,ROW,COL  LAYER,ROW,COL  LAYER,ROW,COL  LAYER,ROW,COL
 ---------------------------------------------------------------------------
  1 -0.7371E-03  0 -0.2282E-03  0 -0.5714E-04  0 -0.1600E-04  0 -0.5717E-05
   (  2, 19, 11)  (  2, 20, 10)  (  1, 19, 12)  (  2, 21,  9)  (  1, 16, 12)
  0 -0.1932E-05  1  0.2265E-04  0  0.7684E-05  0  0.1882E-05  0  0.4757E-06
   (  1, 17, 12)  (  2, 15, 35)  (  2, 17, 33)  (  2, 15, 35)  (  2, 18, 32)
  1 -0.4201E-06  0 -0.1116E-06  1  0.1913E-06  0  0.9554E-07  1 -0.1135E-06
   (  2,  5, 11)  (  2, 12, 18)  (  2, 12, 18)  (  2, 12, 18)  (  2, 12, 18)



 OUTPUT CONTROL FOR STRESS PERIOD    2   TIME STEP  112
    SAVE HEAD FOR ALL LAYERS
    SAVE DRAWDOWN FOR ALL LAYERS
    SAVE BUDGET
    PRINT BUDGET
 UBDSV1 SAVING "         STORAGE" ON UNIT   9 AT TIME STEP112, STRESS PERIOD   2
 UBDSV2 SAVING "   CONSTANT HEAD" ON UNIT   9 AT TIME STEP112, STRESS PERIOD   2
 UBDSV1 SAVING "FLOW RIGHT FACE " ON UNIT   9 AT TIME STEP112, STRESS PERIOD   2
 UBDSV1 SAVING "FLOW FRONT FACE " ON UNIT   9 AT TIME STEP112, STRESS PERIOD   2
 UBDSV1 SAVING "FLOW LOWER FACE " ON UNIT   9 AT TIME STEP112, STRESS PERIOD   2
 UBDSV4 SAVING "           WELLS" ON UNIT   9 AT TIME STEP112, STRESS PERIOD   2
 UBDSV4 SAVING "   RIVER LEAKAGE" ON UNIT   9 AT TIME STEP112, STRESS PERIOD   2
 UBDSV3 SAVING "              ET" ON UNIT   9 AT TIME STEP112, STRESS PERIOD   2
 UBDSV4 SAVING " HEAD DEP BOUNDS" ON UNIT   9 AT TIME STEP112, STRESS PERIOD   2
 UBDSV3 SAVING "        RECHARGE" ON UNIT   9 AT TIME STEP112, STRESS PERIOD   2
 SOLVING FOR ZETA FOR LAYER     1 ZONE     2
     2 CALLS TO PCG ROUTINE FOR TIME STEP 112 IN STRESS PERIOD    2
     4 TOTAL ITERATIONS

 MAXIMUM HEAD CHANGE FOR EACH ITERATION (1 INDICATES THE FIRST INNER ITERATION):

    HEAD CHANGE    HEAD CHANGE    HEAD CHANGE    HEAD CHANGE    HEAD CHANGE 
   LAYER,ROW,COL  LAYER,ROW,COL  LAYER,ROW,COL  LAYER,ROW,COL  LAYER,ROW,COL
 ---------------------------------------------------------------------------
  1   34.37      0  0.1106      0  0.8365E-03  1 -0.5445E-05
   (  1, 18, 10)  (  1, 17,  9)  (  1, 16, 10)  (  1, 16, 12)

 MAXIMUM RESIDUAL FOR EACH ITERATION (1 INDICATES THE FIRST INNER ITERATION):

    RESIDUAL       RESIDUAL       RESIDUAL       RESIDUAL       RESIDUAL    
   LAYER,ROW,COL  LAYER,ROW,COL  LAYER,ROW,COL  LAYER,ROW,COL  LAYER,ROW,COL
 ---------------------------------------------------------------------------
  1 -0.3564E-04  0 -0.2824E-06  0 -0.1532E-08  1  0.1248E-10
   (  1, 17,  9)  (  1, 16, 10)  (  1, 17,  9)  (  1, 17,  9)


 SOLVING FOR ZETA FOR LAYER     2 ZONE     2
     2 CALLS TO PCG ROUTINE FOR TIME STEP 112 IN STRESS PERIOD    2
     4 TOTAL ITERATIONS

 MAXIMUM HEAD CHANGE FOR EACH ITERATION (1 INDICATES THE FIRST INNER ITERATION):

    HEAD CHANGE    HEAD CHANGE    HEAD CHANGE    HEAD CHANGE    HEAD CHANGE 
   LAYER,ROW,COL  LAYER,ROW,COL  LAYER,ROW,COL  LAYER,ROW,COL  LAYER,ROW,COL
 ---------------------------------------------------------------------------
  1  -6.101      0  0.5677E-01  0  0.5285E-03  1  0.6194E-05
   (  1, 17, 12)  (  1, 15, 12)  (  1, 17, 12)  (  1,  9, 11)

 MAXIMUM RESIDUAL FOR EACH ITERATION (1 INDICATES THE FIRST INNER ITERATION):

    RESIDUAL       RESIDUAL       RESIDUAL       RESIDUAL       RESIDUAL    
   LAYER,ROW,COL  LAYER,ROW,COL  LAYER,ROW,COL  LAYER,ROW,COL  LAYER,ROW,COL
 ---------------------------------------------------------------------------
  1 -0.1617E-04  0 -0.1754E-06  0 -0.2659E-08  1 -0.4671E-10
   (  1, 15, 12)  (  1, 10, 10)  (  1,  9, 11)  (  1, 10, 10)


 UBUDSV SAVING "      ZETASRF  1" ON UNIT170 AT TIME STEP112, STRESS PERIOD    2


                      VOLUMETRIC SWI ZONE BUDGET FOR ENTIRE MODEL
                     AT END OF TIME STEP  112 IN STRESS PERIOD   2
                                      ZONE     1
  -----------------------------------------------------------------------------------

        CUMULATIVE VOLUMES      L**3       RATES FOR THIS TIME STEP      L**3/T
        ------------------                 ------------------------

              IN:                                      IN:
              ---                                      ---
             BOUNDARIES =   866960384.0000            BOUNDARIES =           0.1786
          CONSTANT HEAD =           0.0000         CONSTANT HEAD =           0.0000
            ZONE CHANGE =   222855968.0000           ZONE CHANGE =       3.7106E-02
       ZONE CHG TIP/TOE =    15142387.0000      ZONE CHG TIP/TOE =       6.4920E-03
            ZONE MIXING =           0.0000           ZONE MIXING =           0.0000

               TOTAL IN =  1104958720.0000              TOTAL IN =           0.2222

             OUT:                                     OUT:
             ----                                     ----
             BOUNDARIES =  1004644160.0000            BOUNDARIES =           0.2711
          CONSTANT HEAD =           0.0000         CONSTANT HEAD =           0.0000
            ZONE CHANGE =    37285332.0000           ZONE CHANGE =       1.1399E-02
       ZONE CHG TIP/TOE =    11824703.0000      ZONE CHG TIP/TOE =       5.4575E-03
            ZONE MIXING =     2443252.7500           ZONE MIXING =       2.9864E-03

              TOTAL OUT =  1056197440.0000             TOTAL OUT =           0.2909

               IN - OUT =    48761280.0000              IN - OUT =      -6.8693E-02

    PERCENT DISCREPANCY =           4.51     PERCENT DISCREPANCY =         -26.77



                      VOLUMETRIC SWI ZONE BUDGET FOR ENTIRE MODEL
                     AT END OF TIME STEP  112 IN STRESS PERIOD   2
                                      ZONE     2
  -----------------------------------------------------------------------------------

        CUMULATIVE VOLUMES      L**3       RATES FOR THIS TIME STEP      L**3/T
        ------------------                 ------------------------

              IN:                                      IN:
              ---                                      ---
             BOUNDARIES =   184943008.0000            BOUNDARIES =           0.1420
          CONSTANT HEAD =           0.0000         CONSTANT HEAD =           0.0000
            ZONE CHANGE =    31327418.0000           ZONE CHANGE =       7.1346E-03
       ZONE CHG TIP/TOE =    37706476.0000      ZONE CHG TIP/TOE =       7.1625E-02
            ZONE MIXING =     2443252.7500           ZONE MIXING =       2.9864E-03

               TOTAL IN =   256420160.0000              TOTAL IN =           0.2237

             OUT:                                     OUT:
             ----                                     ----
             BOUNDARIES =   156318272.0000            BOUNDARIES =       7.9336E-02
          CONSTANT HEAD =           0.0000         CONSTANT HEAD =           0.0000
            ZONE CHANGE =    82185816.0000           ZONE CHANGE =       7.8626E-02
       ZONE CHG TIP/TOE =     9621436.0000      ZONE CHG TIP/TOE =       2.0294E-03
            ZONE MIXING =           0.0000           ZONE MIXING =           0.0000

              TOTAL OUT =   248125520.0000             TOTAL OUT =           0.1600

               IN - OUT =     8294640.0000              IN - OUT =       6.3738E-02

    PERCENT DISCREPANCY =           3.29     PERCENT DISCREPANCY =          33.22


 HEAD WILL BE SAVED ON UNIT   37 AT END OF TIME STEP  112, STRESS PERIOD    2

 DRAWDOWN WILL BE SAVED ON UNIT   38 AT END OF TIME STEP  112, STRESS PERIOD    2
1
  VOLUMETRIC BUDGET FOR ENTIRE MODEL AT END OF TIME STEP  112, STRESS PERIOD   2
  ------------------------------------------------------------------------------

     CUMULATIVE VOLUMES      L**3       RATES FOR THIS TIME STEP      L**3/T
     ------------------                 ------------------------

           IN:                                      IN:
           ---                                      ---
             STORAGE =   103809856.0000               STORAGE =       2.9936E-02
       CONSTANT HEAD =           0.0000         CONSTANT HEAD =           0.0000
               WELLS =           0.0000                 WELLS =           0.0000
       RIVER LEAKAGE =   178984720.0000         RIVER LEAKAGE =       3.4000E-02
                  ET =           0.0000                    ET =           0.0000
     HEAD DEP BOUNDS =   197570400.0000       HEAD DEP BOUNDS =           0.1473
            RECHARGE =   736267776.0000              RECHARGE =           0.1589
          SWIADDTOCH =           0.0000            SWIADDTOCH =           0.0000

            TOTAL IN =  1216632704.0000              TOTAL IN =           0.3701

          OUT:                                     OUT:
          ----                                     ----
             STORAGE =      219468.3438               STORAGE =       1.3681E-04
       CONSTANT HEAD =           0.0000         CONSTANT HEAD =           0.0000
               WELLS =   671654016.0000                 WELLS =           0.3700
       RIVER LEAKAGE =    21630804.0000         RIVER LEAKAGE =           0.0000
                  ET =   166413648.0000                    ET =           0.0000
     HEAD DEP BOUNDS =   356727456.0000       HEAD DEP BOUNDS =           0.0000
            RECHARGE =           0.0000              RECHARGE =           0.0000
          SWIADDTOCH =           0.0000            SWIADDTOCH =           0.0000

           TOTAL OUT =  1216645376.0000             TOTAL OUT =           0.3701

            IN - OUT =      -12672.0000              IN - OUT =      -2.9802E-08

 PERCENT DISCREPANCY =          -0.00     PERCENT DISCREPANCY =          -0.00






         TIME SUMMARY AT END OF TIME STEP  112 IN STRESS PERIOD    2
                    SECONDS     MINUTES      HOURS       DAYS        YEARS
                    -----------------------------------------------------------
   TIME STEP LENGTH 1.57680E+07 2.62800E+05  4380.0      182.50     0.49966    
 STRESS PERIOD TIME 1.76602E+09 2.94336E+07 4.90561E+05  20440.      55.962    
         TOTAL TIME 4.91962E+09 8.19937E+07 1.36656E+06  56940.      155.89    
1
 
 SOLVING FOR HEAD 

 CELL CONVERSIONS FOR ITER.=  2  LAYER=  1  STEP=113  PERIOD=   2   (ROW,COL)
    DRY( 35, 27)   
     5 CALLS TO PCG ROUTINE FOR TIME STEP 113 IN STRESS PERIOD    2
    15 TOTAL ITERATIONS

 MAXIMUM HEAD CHANGE FOR EACH ITERATION (1 INDICATES THE FIRST INNER ITERATION):

    HEAD CHANGE    HEAD CHANGE    HEAD CHANGE    HEAD CHANGE    HEAD CHANGE 
   LAYER,ROW,COL  LAYER,ROW,COL  LAYER,ROW,COL  LAYER,ROW,COL  LAYER,ROW,COL
 ---------------------------------------------------------------------------
  1 -0.2530      0  0.8036E-01  0 -0.1721E-01  0 -0.5677E-02  0 -0.1757E-02
   (  1, 13,  9)  (  1, 17, 12)  (  2, 17, 13)  (  2,  6,  9)  (  2,  5, 12)
  0  0.5063E-03  1 -0.3372E-01  0  0.5746E-02  0  0.1585E-02  0  0.4927E-03
   (  2,  5, 11)  (  2, 35, 27)  (  2, 53, 37)  (  2, 53, 37)  (  2, 53, 37)
  1 -0.6608E-02  0 -0.3238E-03  1  0.1774E-02  0  0.1345E-03  1 -0.8299E-03
   (  2, 53, 37)  (  2, 53, 37)  (  2, 53, 37)  (  2, 53, 37)  (  2, 10, 21)

 MAXIMUM RESIDUAL FOR EACH ITERATION (1 INDICATES THE FIRST INNER ITERATION):

    RESIDUAL       RESIDUAL       RESIDUAL       RESIDUAL       RESIDUAL    
   LAYER,ROW,COL  LAYER,ROW,COL  LAYER,ROW,COL  LAYER,ROW,COL  LAYER,ROW,COL
 ---------------------------------------------------------------------------
  1  0.7684E-03  0 -0.2430E-03  0 -0.6118E-04  0 -0.1878E-04  0 -0.5013E-05
   (  2, 19, 11)  (  2, 13,  9)  (  2, 12, 10)  (  2, 14,  8)  (  1, 18, 11)
  0  0.1831E-05  1  0.2227E-04  0  0.7963E-05  0  0.2033E-05  0  0.4305E-06
   (  1, 17, 12)  (  2, 35, 27)  (  2, 36, 26)  (  2, 34, 28)  (  2, 37, 25)
  1 -0.3366E-06  0 -0.9955E-07  1 -0.1733E-06  0  0.7402E-07  1 -0.1080E-06
   (  2, 18, 11)  (  2, 32, 26)  (  2,  5, 11)  (  2, 12, 18)  (  2, 12, 18)



 OUTPUT CONTROL FOR STRESS PERIOD    2   TIME STEP  113
    SAVE HEAD FOR ALL LAYERS
    SAVE DRAWDOWN FOR ALL LAYERS
    SAVE BUDGET
    PRINT BUDGET
 UBDSV1 SAVING "         STORAGE" ON UNIT   9 AT TIME STEP113, STRESS PERIOD   2
 UBDSV2 SAVING "   CONSTANT HEAD" ON UNIT   9 AT TIME STEP113, STRESS PERIOD   2
 UBDSV1 SAVING "FLOW RIGHT FACE " ON UNIT   9 AT TIME STEP113, STRESS PERIOD   2
 UBDSV1 SAVING "FLOW FRONT FACE " ON UNIT   9 AT TIME STEP113, STRESS PERIOD   2
 UBDSV1 SAVING "FLOW LOWER FACE " ON UNIT   9 AT TIME STEP113, STRESS PERIOD   2
 UBDSV4 SAVING "           WELLS" ON UNIT   9 AT TIME STEP113, STRESS PERIOD   2
 UBDSV4 SAVING "   RIVER LEAKAGE" ON UNIT   9 AT TIME STEP113, STRESS PERIOD   2
 UBDSV3 SAVING "              ET" ON UNIT   9 AT TIME STEP113, STRESS PERIOD   2
 UBDSV4 SAVING " HEAD DEP BOUNDS" ON UNIT   9 AT TIME STEP113, STRESS PERIOD   2
 UBDSV3 SAVING "        RECHARGE" ON UNIT   9 AT TIME STEP113, STRESS PERIOD   2
 SOLVING FOR ZETA FOR LAYER     1 ZONE     2
     2 CALLS TO PCG ROUTINE FOR TIME STEP 113 IN STRESS PERIOD    2
     4 TOTAL ITERATIONS

 MAXIMUM HEAD CHANGE FOR EACH ITERATION (1 INDICATES THE FIRST INNER ITERATION):

    HEAD CHANGE    HEAD CHANGE    HEAD CHANGE    HEAD CHANGE    HEAD CHANGE 
   LAYER,ROW,COL  LAYER,ROW,COL  LAYER,ROW,COL  LAYER,ROW,COL  LAYER,ROW,COL
 ---------------------------------------------------------------------------
  1   9.680      0  0.2597E-01  0  0.1398E-03  1 -0.1221E-05
   (  1, 16, 11)  (  1, 11, 10)  (  1, 26,  6)  (  1, 11, 10)

 MAXIMUM RESIDUAL FOR EACH ITERATION (1 INDICATES THE FIRST INNER ITERATION):

    RESIDUAL       RESIDUAL       RESIDUAL       RESIDUAL       RESIDUAL    
   LAYER,ROW,COL  LAYER,ROW,COL  LAYER,ROW,COL  LAYER,ROW,COL  LAYER,ROW,COL
 ---------------------------------------------------------------------------
  1 -0.7096E-05  0 -0.4628E-07  0  0.3400E-09  1 -0.5358E-11
   (  1, 11, 10)  (  1, 26,  6)  (  1, 11, 10)  (  1, 26,  6)


 SOLVING FOR ZETA FOR LAYER     2 ZONE     2
     2 CALLS TO PCG ROUTINE FOR TIME STEP 113 IN STRESS PERIOD    2
     4 TOTAL ITERATIONS

 MAXIMUM HEAD CHANGE FOR EACH ITERATION (1 INDICATES THE FIRST INNER ITERATION):

    HEAD CHANGE    HEAD CHANGE    HEAD CHANGE    HEAD CHANGE    HEAD CHANGE 
   LAYER,ROW,COL  LAYER,ROW,COL  LAYER,ROW,COL  LAYER,ROW,COL  LAYER,ROW,COL
 ---------------------------------------------------------------------------
  1   9.037      0  0.3656E-01  0  0.5384E-03  1  0.5698E-05
   (  1, 17, 11)  (  1, 10, 11)  (  1,  9, 12)  (  1,  9, 11)

 MAXIMUM RESIDUAL FOR EACH ITERATION (1 INDICATES THE FIRST INNER ITERATION):

    RESIDUAL       RESIDUAL       RESIDUAL       RESIDUAL       RESIDUAL    
   LAYER,ROW,COL  LAYER,ROW,COL  LAYER,ROW,COL  LAYER,ROW,COL  LAYER,ROW,COL
 ---------------------------------------------------------------------------
  1 -0.1237E-04  0 -0.1669E-06  0 -0.2502E-08  1 -0.4157E-10
   (  1, 10, 11)  (  1, 10, 10)  (  1,  9, 11)  (  1, 10, 10)


 UBUDSV SAVING "      ZETASRF  1" ON UNIT170 AT TIME STEP113, STRESS PERIOD    2


                      VOLUMETRIC SWI ZONE BUDGET FOR ENTIRE MODEL
                     AT END OF TIME STEP  113 IN STRESS PERIOD   2
                                      ZONE     1
  -----------------------------------------------------------------------------------

        CUMULATIVE VOLUMES      L**3       RATES FOR THIS TIME STEP      L**3/T
        ------------------                 ------------------------

              IN:                                      IN:
              ---                                      ---
             BOUNDARIES =   869775744.0000            BOUNDARIES =           0.1785
          CONSTANT HEAD =           0.0000         CONSTANT HEAD =           0.0000
            ZONE CHANGE =   223463680.0000           ZONE CHANGE =       3.8541E-02
       ZONE CHG TIP/TOE =    15318872.0000      ZONE CHG TIP/TOE =       1.1193E-02
            ZONE MIXING =           0.0000           ZONE MIXING =           0.0000

               TOTAL IN =  1108558336.0000              TOTAL IN =           0.2283

             OUT:                                     OUT:
             ----                                     ----
             BOUNDARIES =  1007822080.0000            BOUNDARIES =           0.2015
          CONSTANT HEAD =           0.0000         CONSTANT HEAD =           0.0000
            ZONE CHANGE =    37442428.0000           ZONE CHANGE =       9.9629E-03
       ZONE CHG TIP/TOE =    11923095.0000      ZONE CHG TIP/TOE =       6.2400E-03
            ZONE MIXING =     2589404.5000           ZONE MIXING =       9.2689E-03

              TOTAL OUT =  1059777024.0000             TOTAL OUT =           0.2270

               IN - OUT =    48781312.0000              IN - OUT =       1.2700E-03

    PERCENT DISCREPANCY =           4.50     PERCENT DISCREPANCY =           0.56



                      VOLUMETRIC SWI ZONE BUDGET FOR ENTIRE MODEL
                     AT END OF TIME STEP  113 IN STRESS PERIOD   2
                                      ZONE     2
  -----------------------------------------------------------------------------------

        CUMULATIVE VOLUMES      L**3       RATES FOR THIS TIME STEP      L**3/T
        ------------------                 ------------------------

              IN:                                      IN:
              ---                                      ---
             BOUNDARIES =   187185856.0000            BOUNDARIES =           0.1422
          CONSTANT HEAD =           0.0000         CONSTANT HEAD =           0.0000
            ZONE CHANGE =    31438158.0000           ZONE CHANGE =       7.0231E-03
       ZONE CHG TIP/TOE =    37883000.0000      ZONE CHG TIP/TOE =       1.1195E-02
            ZONE MIXING =     2589404.5000           ZONE MIXING =       9.2689E-03

               TOTAL IN =   259096416.0000              TOTAL IN =           0.1697

             OUT:                                     OUT:
             ----                                     ----
             BOUNDARIES =   158665536.0000            BOUNDARIES =           0.1489
          CONSTANT HEAD =           0.0000         CONSTANT HEAD =           0.0000
            ZONE CHANGE =    82484864.0000           ZONE CHANGE =       1.8965E-02
       ZONE CHG TIP/TOE =     9749042.0000      ZONE CHG TIP/TOE =       8.0927E-03
            ZONE MIXING =           0.0000           ZONE MIXING =           0.0000

              TOTAL OUT =   250899440.0000             TOTAL OUT =           0.1759

               IN - OUT =     8196976.0000              IN - OUT =      -6.1938E-03

    PERCENT DISCREPANCY =           3.21     PERCENT DISCREPANCY =          -3.58


 HEAD WILL BE SAVED ON UNIT   37 AT END OF TIME STEP  113, STRESS PERIOD    2

 DRAWDOWN WILL BE SAVED ON UNIT   38 AT END OF TIME STEP  113, STRESS PERIOD    2
1
  VOLUMETRIC BUDGET FOR ENTIRE MODEL AT END OF TIME STEP  113, STRESS PERIOD   2
  ------------------------------------------------------------------------------

     CUMULATIVE VOLUMES      L**3       RATES FOR THIS TIME STEP      L**3/T
     ------------------                 ------------------------

           IN:                                      IN:
           ---                                      ---
             STORAGE =   104280648.0000               STORAGE =       2.9857E-02
       CONSTANT HEAD =           0.0000         CONSTANT HEAD =           0.0000
               WELLS =           0.0000                 WELLS =           0.0000
       RIVER LEAKAGE =   179520832.0000         RIVER LEAKAGE =       3.4000E-02
                  ET =           0.0000                    ET =           0.0000
     HEAD DEP BOUNDS =   199899488.0000       HEAD DEP BOUNDS =           0.1477
            RECHARGE =   738769792.0000              RECHARGE =           0.1587
          SWIADDTOCH =           0.0000            SWIADDTOCH =           0.0000

            TOTAL IN =  1222470784.0000              TOTAL IN =           0.3702

          OUT:                                     OUT:
          ----                                     ----
             STORAGE =      223296.1406               STORAGE =       2.4276E-04
       CONSTANT HEAD =           0.0000         CONSTANT HEAD =           0.0000
               WELLS =   677488192.0000                 WELLS =           0.3700
       RIVER LEAKAGE =    21630804.0000         RIVER LEAKAGE =           0.0000
                  ET =   166413648.0000                    ET =           0.0000
     HEAD DEP BOUNDS =   356727456.0000       HEAD DEP BOUNDS =           0.0000
            RECHARGE =           0.0000              RECHARGE =           0.0000
          SWIADDTOCH =           0.0000            SWIADDTOCH =           0.0000

           TOTAL OUT =  1222483328.0000             TOTAL OUT =           0.3702

            IN - OUT =      -12544.0000              IN - OUT =           0.0000

 PERCENT DISCREPANCY =          -0.00     PERCENT DISCREPANCY =           0.00






         TIME SUMMARY AT END OF TIME STEP  113 IN STRESS PERIOD    2
                    SECONDS     MINUTES      HOURS       DAYS        YEARS
                    -----------------------------------------------------------
   TIME STEP LENGTH 1.57680E+07 2.62800E+05  4380.0      182.50     0.49966    
 STRESS PERIOD TIME 1.78179E+09 2.96964E+07 4.94941E+05  20623.      56.461    
         TOTAL TIME 4.93539E+09 8.22565E+07 1.37094E+06  57123.      156.39    
1
 
 SOLVING FOR HEAD 

 CELL CONVERSIONS FOR ITER.=  2  LAYER=  1  STEP=114  PERIOD=   2   (ROW,COL)
    DRY( 34, 30)   DRY( 35, 30)   
     6 CALLS TO PCG ROUTINE FOR TIME STEP 114 IN STRESS PERIOD    2
    17 TOTAL ITERATIONS

 MAXIMUM HEAD CHANGE FOR EACH ITERATION (1 INDICATES THE FIRST INNER ITERATION):

    HEAD CHANGE    HEAD CHANGE    HEAD CHANGE    HEAD CHANGE    HEAD CHANGE 
   LAYER,ROW,COL  LAYER,ROW,COL  LAYER,ROW,COL  LAYER,ROW,COL  LAYER,ROW,COL
 ---------------------------------------------------------------------------
  1 -0.2671      0 -0.1025      0  0.2535E-01  0 -0.5306E-02  0 -0.1185E-02
   (  2, 18, 11)  (  1, 17, 12)  (  1, 17, 11)  (  1, 16, 13)  (  2, 19,  9)
  0 -0.4029E-03  1 -0.5282E-01  0 -0.7173E-02  0  0.1571E-02  0  0.4467E-03
   (  1, 18, 11)  (  2, 35, 30)  (  2, 33, 32)  (  2, 53, 37)  (  2, 53, 37)
  1 -0.8226E-02  0 -0.6004E-03  1  0.3060E-02  0  0.2200E-03  1 -0.1115E-02
   (  2, 53, 37)  (  2, 53, 37)  (  2, 53, 37)  (  2, 53, 37)  (  2, 53, 37)
  0 -0.8343E-04  1  0.5069E-03
   (  2, 53, 37)  (  2, 10, 21)

 MAXIMUM RESIDUAL FOR EACH ITERATION (1 INDICATES THE FIRST INNER ITERATION):

    RESIDUAL       RESIDUAL       RESIDUAL       RESIDUAL       RESIDUAL    
   LAYER,ROW,COL  LAYER,ROW,COL  LAYER,ROW,COL  LAYER,ROW,COL  LAYER,ROW,COL
 ---------------------------------------------------------------------------
  1  0.6240E-03  0  0.1761E-03  0 -0.4516E-04  0  0.1595E-04  0  0.4698E-05
   (  2, 17, 11)  (  1, 17, 12)  (  2, 20, 10)  (  2, 19,  9)  (  2, 19,  9)
  0 -0.1396E-05  1  0.2723E-04  0  0.7964E-05  0  0.1608E-05  0  0.5970E-06
   (  1, 17, 12)  (  2, 36, 29)  (  2, 36, 29)  (  2, 34, 31)  (  2, 32, 32)
  1 -0.5458E-06  0 -0.2011E-06  1 -0.2379E-06  0  0.5901E-07  1 -0.9154E-07
   (  2,  5, 11)  (  2, 32, 30)  (  2,  5, 11)  (  2, 53, 32)  (  2, 12, 18)
  0 -0.3985E-07  1  0.5793E-07
   (  2, 12, 18)  (  2, 12, 18)



 OUTPUT CONTROL FOR STRESS PERIOD    2   TIME STEP  114
    SAVE HEAD FOR ALL LAYERS
    SAVE DRAWDOWN FOR ALL LAYERS
    SAVE BUDGET
    PRINT BUDGET
 UBDSV1 SAVING "         STORAGE" ON UNIT   9 AT TIME STEP114, STRESS PERIOD   2
 UBDSV2 SAVING "   CONSTANT HEAD" ON UNIT   9 AT TIME STEP114, STRESS PERIOD   2
 UBDSV1 SAVING "FLOW RIGHT FACE " ON UNIT   9 AT TIME STEP114, STRESS PERIOD   2
 UBDSV1 SAVING "FLOW FRONT FACE " ON UNIT   9 AT TIME STEP114, STRESS PERIOD   2
 UBDSV1 SAVING "FLOW LOWER FACE " ON UNIT   9 AT TIME STEP114, STRESS PERIOD   2
 UBDSV4 SAVING "           WELLS" ON UNIT   9 AT TIME STEP114, STRESS PERIOD   2
 UBDSV4 SAVING "   RIVER LEAKAGE" ON UNIT   9 AT TIME STEP114, STRESS PERIOD   2
 UBDSV3 SAVING "              ET" ON UNIT   9 AT TIME STEP114, STRESS PERIOD   2
 UBDSV4 SAVING " HEAD DEP BOUNDS" ON UNIT   9 AT TIME STEP114, STRESS PERIOD   2
 UBDSV3 SAVING "        RECHARGE" ON UNIT   9 AT TIME STEP114, STRESS PERIOD   2
 SOLVING FOR ZETA FOR LAYER     1 ZONE     2
     2 CALLS TO PCG ROUTINE FOR TIME STEP 114 IN STRESS PERIOD    2
     4 TOTAL ITERATIONS

 MAXIMUM HEAD CHANGE FOR EACH ITERATION (1 INDICATES THE FIRST INNER ITERATION):

    HEAD CHANGE    HEAD CHANGE    HEAD CHANGE    HEAD CHANGE    HEAD CHANGE 
   LAYER,ROW,COL  LAYER,ROW,COL  LAYER,ROW,COL  LAYER,ROW,COL  LAYER,ROW,COL
 ---------------------------------------------------------------------------
  1   35.30      0  0.1007      0  0.5010E-03  1  0.1996E-05
   (  1, 18, 10)  (  1, 17, 11)  (  1, 12, 10)  (  1, 12,  9)

 MAXIMUM RESIDUAL FOR EACH ITERATION (1 INDICATES THE FIRST INNER ITERATION):

    RESIDUAL       RESIDUAL       RESIDUAL       RESIDUAL       RESIDUAL    
   LAYER,ROW,COL  LAYER,ROW,COL  LAYER,ROW,COL  LAYER,ROW,COL  LAYER,ROW,COL
 ---------------------------------------------------------------------------
  1 -0.3257E-04  0 -0.1483E-06  0 -0.6556E-09  1 -0.7064E-11
   (  1, 13,  9)  (  1, 12, 10)  (  1, 12,  9)  (  1, 26,  6)


 SOLVING FOR ZETA FOR LAYER     2 ZONE     2
     2 CALLS TO PCG ROUTINE FOR TIME STEP 114 IN STRESS PERIOD    2
     4 TOTAL ITERATIONS

 MAXIMUM HEAD CHANGE FOR EACH ITERATION (1 INDICATES THE FIRST INNER ITERATION):

    HEAD CHANGE    HEAD CHANGE    HEAD CHANGE    HEAD CHANGE    HEAD CHANGE 
   LAYER,ROW,COL  LAYER,ROW,COL  LAYER,ROW,COL  LAYER,ROW,COL  LAYER,ROW,COL
 ---------------------------------------------------------------------------
  1  -5.998      0  0.3668E-01  0  0.5132E-03  1  0.5488E-05
   (  1, 17, 12)  (  1, 10, 11)  (  1,  9, 12)  (  1,  9, 11)

 MAXIMUM RESIDUAL FOR EACH ITERATION (1 INDICATES THE FIRST INNER ITERATION):

    RESIDUAL       RESIDUAL       RESIDUAL       RESIDUAL       RESIDUAL    
   LAYER,ROW,COL  LAYER,ROW,COL  LAYER,ROW,COL  LAYER,ROW,COL  LAYER,ROW,COL
 ---------------------------------------------------------------------------
  1 -0.1235E-04  0 -0.1615E-06  0 -0.2422E-08  1 -0.4315E-10
   (  1, 10, 11)  (  1, 10, 10)  (  1,  9, 11)  (  1, 10, 10)


 UBUDSV SAVING "      ZETASRF  1" ON UNIT170 AT TIME STEP114, STRESS PERIOD    2


                      VOLUMETRIC SWI ZONE BUDGET FOR ENTIRE MODEL
                     AT END OF TIME STEP  114 IN STRESS PERIOD   2
                                      ZONE     1
  -----------------------------------------------------------------------------------

        CUMULATIVE VOLUMES      L**3       RATES FOR THIS TIME STEP      L**3/T
        ------------------                 ------------------------

              IN:                                      IN:
              ---                                      ---
             BOUNDARIES =   872590080.0000            BOUNDARIES =           0.1785
          CONSTANT HEAD =           0.0000         CONSTANT HEAD =           0.0000
            ZONE CHANGE =   224135136.0000           ZONE CHANGE =       4.2583E-02
       ZONE CHG TIP/TOE =    15448187.0000      ZONE CHG TIP/TOE =       8.2011E-03
            ZONE MIXING =           0.0000           ZONE MIXING =           0.0000

               TOTAL IN =  1112173440.0000              TOTAL IN =           0.2293

             OUT:                                     OUT:
             ----                                     ----
             BOUNDARIES =  1011688512.0000            BOUNDARIES =           0.2452
          CONSTANT HEAD =           0.0000         CONSTANT HEAD =           0.0000
            ZONE CHANGE =    37550612.0000           ZONE CHANGE =       6.8609E-03
       ZONE CHG TIP/TOE =    12028499.0000      ZONE CHG TIP/TOE =       6.6847E-03
            ZONE MIXING =     2635009.5000           ZONE MIXING =       2.8923E-03

              TOTAL OUT =  1063902656.0000             TOTAL OUT =           0.2616

               IN - OUT =    48270784.0000              IN - OUT =      -3.2378E-02

    PERCENT DISCREPANCY =           4.44     PERCENT DISCREPANCY =         -13.19



                      VOLUMETRIC SWI ZONE BUDGET FOR ENTIRE MODEL
                     AT END OF TIME STEP  114 IN STRESS PERIOD   2
                                      ZONE     2
  -----------------------------------------------------------------------------------

        CUMULATIVE VOLUMES      L**3       RATES FOR THIS TIME STEP      L**3/T
        ------------------                 ------------------------

              IN:                                      IN:
              ---                                      ---
             BOUNDARIES =   189430080.0000            BOUNDARIES =           0.1423
          CONSTANT HEAD =           0.0000         CONSTANT HEAD =           0.0000
            ZONE CHANGE =    31522852.0000           ZONE CHANGE =       5.3712E-03
       ZONE CHG TIP/TOE =    38512532.0000      ZONE CHG TIP/TOE =       3.9925E-02
            ZONE MIXING =     2635009.5000           ZONE MIXING =       2.8923E-03

               TOTAL IN =   262100480.0000              TOTAL IN =           0.1905

             OUT:                                     OUT:
             ----                                     ----
             BOUNDARIES =   160324256.0000            BOUNDARIES =           0.1052
          CONSTANT HEAD =           0.0000         CONSTANT HEAD =           0.0000
            ZONE CHANGE =    83294040.0000           ZONE CHANGE =       5.1318E-02
       ZONE CHG TIP/TOE =     9852256.0000      ZONE CHG TIP/TOE =       6.5458E-03
            ZONE MIXING =           0.0000           ZONE MIXING =           0.0000

              TOTAL OUT =   253470560.0000             TOTAL OUT =           0.1631

               IN - OUT =     8629920.0000              IN - OUT =       2.7458E-02

    PERCENT DISCREPANCY =           3.35     PERCENT DISCREPANCY =          15.53


 HEAD WILL BE SAVED ON UNIT   37 AT END OF TIME STEP  114, STRESS PERIOD    2

 DRAWDOWN WILL BE SAVED ON UNIT   38 AT END OF TIME STEP  114, STRESS PERIOD    2
1
  VOLUMETRIC BUDGET FOR ENTIRE MODEL AT END OF TIME STEP  114, STRESS PERIOD   2
  ------------------------------------------------------------------------------

     CUMULATIVE VOLUMES      L**3       RATES FOR THIS TIME STEP      L**3/T
     ------------------                 ------------------------

           IN:                                      IN:
           ---                                      ---
             STORAGE =   104750024.0000               STORAGE =       2.9768E-02
       CONSTANT HEAD =           0.0000         CONSTANT HEAD =           0.0000
               WELLS =           0.0000                 WELLS =           0.0000
       RIVER LEAKAGE =   180056944.0000         RIVER LEAKAGE =       3.4000E-02
                  ET =           0.0000                    ET =           0.0000
     HEAD DEP BOUNDS =   202234944.0000       HEAD DEP BOUNDS =           0.1481
            RECHARGE =   741265792.0000              RECHARGE =           0.1583
          SWIADDTOCH =           0.0000            SWIADDTOCH =           0.0000

            TOTAL IN =  1228307712.0000              TOTAL IN =           0.3702

          OUT:                                     OUT:
          ----                                     ----
             STORAGE =      226075.5625               STORAGE =       1.7627E-04
       CONSTANT HEAD =           0.0000         CONSTANT HEAD =           0.0000
               WELLS =   683322368.0000                 WELLS =           0.3700
       RIVER LEAKAGE =    21630804.0000         RIVER LEAKAGE =           0.0000
                  ET =   166413648.0000                    ET =           0.0000
     HEAD DEP BOUNDS =   356727456.0000       HEAD DEP BOUNDS =           0.0000
            RECHARGE =           0.0000              RECHARGE =           0.0000
          SWIADDTOCH =           0.0000            SWIADDTOCH =           0.0000

           TOTAL OUT =  1228320256.0000             TOTAL OUT =           0.3702

            IN - OUT =      -12544.0000              IN - OUT =           0.0000

 PERCENT DISCREPANCY =          -0.00     PERCENT DISCREPANCY =           0.00






         TIME SUMMARY AT END OF TIME STEP  114 IN STRESS PERIOD    2
                    SECONDS     MINUTES      HOURS       DAYS        YEARS
                    -----------------------------------------------------------
   TIME STEP LENGTH 1.57680E+07 2.62800E+05  4380.0      182.50     0.49966    
 STRESS PERIOD TIME 1.79755E+09 2.99592E+07 4.99321E+05  20805.      56.961    
         TOTAL TIME 4.95116E+09 8.25193E+07 1.37532E+06  57305.      156.89    
1
 
 SOLVING FOR HEAD 

 CELL CONVERSIONS FOR ITER.=  2  LAYER=  1  STEP=115  PERIOD=   2   (ROW,COL)
    DRY( 18, 29)   DRY( 34, 29)   
     7 CALLS TO PCG ROUTINE FOR TIME STEP 115 IN STRESS PERIOD    2
    19 TOTAL ITERATIONS

 MAXIMUM HEAD CHANGE FOR EACH ITERATION (1 INDICATES THE FIRST INNER ITERATION):

    HEAD CHANGE    HEAD CHANGE    HEAD CHANGE    HEAD CHANGE    HEAD CHANGE 
   LAYER,ROW,COL  LAYER,ROW,COL  LAYER,ROW,COL  LAYER,ROW,COL  LAYER,ROW,COL
 ---------------------------------------------------------------------------
  1 -0.3160      0 -0.6707E-01  0 -0.1688E-01  0 -0.8441E-02  0  0.2025E-02
   (  1, 13, 10)  (  2, 19, 11)  (  2, 16, 13)  (  2,  5, 11)  (  1, 16, 13)
  0 -0.6233E-03  1 -0.3473E-01  0  0.5912E-02  0  0.1584E-02  0  0.4279E-03
   (  2, 13, 10)  (  2, 18, 29)  (  2, 51, 34)  (  2, 53, 37)  (  2, 53, 37)
  1 -0.9523E-02  0 -0.4897E-03  1  0.4490E-02  0  0.1877E-03  1 -0.2152E-02
   (  2, 53, 37)  (  2, 53, 37)  (  2, 53, 37)  (  2, 53, 37)  (  2, 53, 37)
  0 -0.7010E-04  1  0.1013E-02  0  0.4464E-04  1 -0.4741E-03
   (  2, 53, 37)  (  2, 53, 37)  (  2, 53, 37)  (  2, 53, 37)

 MAXIMUM RESIDUAL FOR EACH ITERATION (1 INDICATES THE FIRST INNER ITERATION):

    RESIDUAL       RESIDUAL       RESIDUAL       RESIDUAL       RESIDUAL    
   LAYER,ROW,COL  LAYER,ROW,COL  LAYER,ROW,COL  LAYER,ROW,COL  LAYER,ROW,COL
 ---------------------------------------------------------------------------
  1 -0.6232E-03  0  0.1888E-03  0  0.5610E-04  0 -0.1873E-04  0 -0.7009E-05
   (  2, 13, 10)  (  2, 13,  9)  (  2, 13,  9)  (  1, 20, 10)  (  1, 20, 10)
  0 -0.1714E-05  1  0.2584E-04  0  0.8758E-05  0  0.1999E-05  0  0.4450E-06
   (  1, 20, 10)  (  2, 34, 29)  (  2, 19, 28)  (  2, 33, 30)  (  2, 20, 27)
  1 -0.4018E-06  0 -0.1394E-06  1  0.2056E-06  0  0.6171E-07  1  0.8112E-07
   (  2, 18, 11)  (  2, 16, 31)  (  2,  5, 11)  (  2, 53, 32)  (  2,  5, 11)
  0 -0.3302E-07  1  0.6000E-07  0  0.2612E-07  1 -0.4407E-07
   (  2, 12, 18)  (  2, 12, 18)  (  2, 12, 18)  (  2, 12, 18)



 OUTPUT CONTROL FOR STRESS PERIOD    2   TIME STEP  115
    SAVE HEAD FOR ALL LAYERS
    SAVE DRAWDOWN FOR ALL LAYERS
    SAVE BUDGET
    PRINT BUDGET
 UBDSV1 SAVING "         STORAGE" ON UNIT   9 AT TIME STEP115, STRESS PERIOD   2
 UBDSV2 SAVING "   CONSTANT HEAD" ON UNIT   9 AT TIME STEP115, STRESS PERIOD   2
 UBDSV1 SAVING "FLOW RIGHT FACE " ON UNIT   9 AT TIME STEP115, STRESS PERIOD   2
 UBDSV1 SAVING "FLOW FRONT FACE " ON UNIT   9 AT TIME STEP115, STRESS PERIOD   2
 UBDSV1 SAVING "FLOW LOWER FACE " ON UNIT   9 AT TIME STEP115, STRESS PERIOD   2
 UBDSV4 SAVING "           WELLS" ON UNIT   9 AT TIME STEP115, STRESS PERIOD   2
 UBDSV4 SAVING "   RIVER LEAKAGE" ON UNIT   9 AT TIME STEP115, STRESS PERIOD   2
 UBDSV3 SAVING "              ET" ON UNIT   9 AT TIME STEP115, STRESS PERIOD   2
 UBDSV4 SAVING " HEAD DEP BOUNDS" ON UNIT   9 AT TIME STEP115, STRESS PERIOD   2
 UBDSV3 SAVING "        RECHARGE" ON UNIT   9 AT TIME STEP115, STRESS PERIOD   2
 SOLVING FOR ZETA FOR LAYER     1 ZONE     2
     2 CALLS TO PCG ROUTINE FOR TIME STEP 115 IN STRESS PERIOD    2
     4 TOTAL ITERATIONS

 MAXIMUM HEAD CHANGE FOR EACH ITERATION (1 INDICATES THE FIRST INNER ITERATION):

    HEAD CHANGE    HEAD CHANGE    HEAD CHANGE    HEAD CHANGE    HEAD CHANGE 
   LAYER,ROW,COL  LAYER,ROW,COL  LAYER,ROW,COL  LAYER,ROW,COL  LAYER,ROW,COL
 ---------------------------------------------------------------------------
  1   31.88      0  0.8680E-01  0  0.2331E-03  1  0.1678E-05
   (  1, 20,  8)  (  1, 15, 11)  (  1, 16, 10)  (  1, 25,  7)

 MAXIMUM RESIDUAL FOR EACH ITERATION (1 INDICATES THE FIRST INNER ITERATION):

    RESIDUAL       RESIDUAL       RESIDUAL       RESIDUAL       RESIDUAL    
   LAYER,ROW,COL  LAYER,ROW,COL  LAYER,ROW,COL  LAYER,ROW,COL  LAYER,ROW,COL
 ---------------------------------------------------------------------------
  1 -0.2426E-04  0 -0.7191E-07  0 -0.4994E-09  1 -0.8788E-11
   (  1, 15, 11)  (  1, 16, 10)  (  1, 25,  7)  (  1, 26,  6)


 SOLVING FOR ZETA FOR LAYER     2 ZONE     2
     2 CALLS TO PCG ROUTINE FOR TIME STEP 115 IN STRESS PERIOD    2
     4 TOTAL ITERATIONS

 MAXIMUM HEAD CHANGE FOR EACH ITERATION (1 INDICATES THE FIRST INNER ITERATION):

    HEAD CHANGE    HEAD CHANGE    HEAD CHANGE    HEAD CHANGE    HEAD CHANGE 
   LAYER,ROW,COL  LAYER,ROW,COL  LAYER,ROW,COL  LAYER,ROW,COL  LAYER,ROW,COL
 ---------------------------------------------------------------------------
  1   8.585      0  0.1175      0 -0.4079E-03  1  0.5116E-05
   (  1, 17, 11)  (  1, 16, 12)  (  1, 18, 11)  (  1, 29,  6)

 MAXIMUM RESIDUAL FOR EACH ITERATION (1 INDICATES THE FIRST INNER ITERATION):

    RESIDUAL       RESIDUAL       RESIDUAL       RESIDUAL       RESIDUAL    
   LAYER,ROW,COL  LAYER,ROW,COL  LAYER,ROW,COL  LAYER,ROW,COL  LAYER,ROW,COL
 ---------------------------------------------------------------------------
  1 -0.3310E-04  0  0.1445E-06  0 -0.1593E-08  1 -0.4093E-10
   (  1, 16, 12)  (  1, 18, 11)  (  1, 29,  6)  (  1, 30,  5)


 UBUDSV SAVING "      ZETASRF  1" ON UNIT170 AT TIME STEP115, STRESS PERIOD    2


                      VOLUMETRIC SWI ZONE BUDGET FOR ENTIRE MODEL
                     AT END OF TIME STEP  115 IN STRESS PERIOD   2
                                      ZONE     1
  -----------------------------------------------------------------------------------

        CUMULATIVE VOLUMES      L**3       RATES FOR THIS TIME STEP      L**3/T
        ------------------                 ------------------------

              IN:                                      IN:
              ---                                      ---
             BOUNDARIES =   875400320.0000            BOUNDARIES =           0.1782
          CONSTANT HEAD =           0.0000         CONSTANT HEAD =           0.0000
            ZONE CHANGE =   224782208.0000           ZONE CHANGE =       4.1037E-02
       ZONE CHG TIP/TOE =    15521135.0000      ZONE CHG TIP/TOE =       4.6263E-03
            ZONE MIXING =           0.0000           ZONE MIXING =           0.0000

               TOTAL IN =  1115703680.0000              TOTAL IN =           0.2239

             OUT:                                     OUT:
             ----                                     ----
             BOUNDARIES =  1015248576.0000            BOUNDARIES =           0.2258
          CONSTANT HEAD =           0.0000         CONSTANT HEAD =           0.0000
            ZONE CHANGE =    37703420.0000           ZONE CHANGE =       9.6911E-03
       ZONE CHG TIP/TOE =    12063555.0000      ZONE CHG TIP/TOE =       2.2233E-03
            ZONE MIXING =     2779696.5000           ZONE MIXING =       9.1760E-03

              TOTAL OUT =  1067795264.0000             TOTAL OUT =           0.2469

               IN - OUT =    47908416.0000              IN - OUT =      -2.2983E-02

    PERCENT DISCREPANCY =           4.39     PERCENT DISCREPANCY =          -9.76



                      VOLUMETRIC SWI ZONE BUDGET FOR ENTIRE MODEL
                     AT END OF TIME STEP  115 IN STRESS PERIOD   2
                                      ZONE     2
  -----------------------------------------------------------------------------------

        CUMULATIVE VOLUMES      L**3       RATES FOR THIS TIME STEP      L**3/T
        ------------------                 ------------------------

              IN:                                      IN:
              ---                                      ---
             BOUNDARIES =   191678848.0000            BOUNDARIES =           0.1426
          CONSTANT HEAD =           0.0000         CONSTANT HEAD =           0.0000
            ZONE CHANGE =    31650024.0000           ZONE CHANGE =       8.0652E-03
       ZONE CHG TIP/TOE =    38889332.0000      ZONE CHG TIP/TOE =       2.3896E-02
            ZONE MIXING =     2779696.5000           ZONE MIXING =       9.1760E-03

               TOTAL IN =   264997904.0000              TOTAL IN =           0.1838

             OUT:                                     OUT:
             ----                                     ----
             BOUNDARIES =   162289328.0000            BOUNDARIES =           0.1246
          CONSTANT HEAD =           0.0000         CONSTANT HEAD =           0.0000
            ZONE CHANGE =    83901504.0000           ZONE CHANGE =       3.8525E-02
       ZONE CHG TIP/TOE =     9892256.0000      ZONE CHG TIP/TOE =       2.5368E-03
            ZONE MIXING =           0.0000           ZONE MIXING =           0.0000

              TOTAL OUT =   256083088.0000             TOTAL OUT =           0.1657

               IN - OUT =     8914816.0000              IN - OUT =       1.8068E-02

    PERCENT DISCREPANCY =           3.42     PERCENT DISCREPANCY =          10.34


 HEAD WILL BE SAVED ON UNIT   37 AT END OF TIME STEP  115, STRESS PERIOD    2

 DRAWDOWN WILL BE SAVED ON UNIT   38 AT END OF TIME STEP  115, STRESS PERIOD    2
1
  VOLUMETRIC BUDGET FOR ENTIRE MODEL AT END OF TIME STEP  115, STRESS PERIOD   2
  ------------------------------------------------------------------------------

     CUMULATIVE VOLUMES      L**3       RATES FOR THIS TIME STEP      L**3/T
     ------------------                 ------------------------

           IN:                                      IN:
           ---                                      ---
             STORAGE =   105219440.0000               STORAGE =       2.9770E-02
       CONSTANT HEAD =           0.0000         CONSTANT HEAD =           0.0000
               WELLS =           0.0000                 WELLS =           0.0000
       RIVER LEAKAGE =   180593056.0000         RIVER LEAKAGE =       3.4000E-02
                  ET =           0.0000                    ET =           0.0000
     HEAD DEP BOUNDS =   204576832.0000       HEAD DEP BOUNDS =           0.1485
            RECHARGE =   743755776.0000              RECHARGE =           0.1579
          SWIADDTOCH =           0.0000            SWIADDTOCH =           0.0000

            TOTAL IN =  1234145024.0000              TOTAL IN =           0.3702

          OUT:                                     OUT:
          ----                                     ----
             STORAGE =      229326.8750               STORAGE =       2.0620E-04
       CONSTANT HEAD =           0.0000         CONSTANT HEAD =           0.0000
               WELLS =   689156544.0000                 WELLS =           0.3700
       RIVER LEAKAGE =    21630804.0000         RIVER LEAKAGE =           0.0000
                  ET =   166413648.0000                    ET =           0.0000
     HEAD DEP BOUNDS =   356727456.0000       HEAD DEP BOUNDS =           0.0000
            RECHARGE =           0.0000              RECHARGE =           0.0000
          SWIADDTOCH =           0.0000            SWIADDTOCH =           0.0000

           TOTAL OUT =  1234157696.0000             TOTAL OUT =           0.3702

            IN - OUT =      -12672.0000              IN - OUT =       2.9802E-08

 PERCENT DISCREPANCY =          -0.00     PERCENT DISCREPANCY =           0.00






         TIME SUMMARY AT END OF TIME STEP  115 IN STRESS PERIOD    2
                    SECONDS     MINUTES      HOURS       DAYS        YEARS
                    -----------------------------------------------------------
   TIME STEP LENGTH 1.57680E+07 2.62800E+05  4380.0      182.50     0.49966    
 STRESS PERIOD TIME 1.81332E+09 3.02220E+07 5.03701E+05  20988.      57.461    
         TOTAL TIME 4.96693E+09 8.27821E+07 1.37970E+06  57488.      157.39    
1
 
 SOLVING FOR HEAD 

 CELL CONVERSIONS FOR ITER.=  2  LAYER=  1  STEP=116  PERIOD=   2   (ROW,COL)
    DRY( 40, 23)   

 CELL CONVERSIONS FOR ITER.=  2  LAYER=  2  STEP=116  PERIOD=   2   (ROW,COL)
    DRY( 24, 47)   

 CELL CONVERSIONS FOR ITER.=  5  LAYER=  1  STEP=116  PERIOD=   2   (ROW,COL)
    DRY( 18, 35)   
     8 CALLS TO PCG ROUTINE FOR TIME STEP 116 IN STRESS PERIOD    2
    23 TOTAL ITERATIONS

 MAXIMUM HEAD CHANGE FOR EACH ITERATION (1 INDICATES THE FIRST INNER ITERATION):

    HEAD CHANGE    HEAD CHANGE    HEAD CHANGE    HEAD CHANGE    HEAD CHANGE 
   LAYER,ROW,COL  LAYER,ROW,COL  LAYER,ROW,COL  LAYER,ROW,COL  LAYER,ROW,COL
 ---------------------------------------------------------------------------
  1 -0.3390      0 -0.9666E-01  0 -0.3497E-01  0 -0.7442E-02  0  0.1765E-02
   (  2, 17, 11)  (  1, 15, 12)  (  1, 17, 12)  (  1, 19, 11)  (  1, 19, 12)
  0  0.5305E-03  1 -0.5156E-01  0  0.1323E-01  0  0.2165E-02  0  0.3598E-03
   (  2,  6, 11)  (  2, 40, 23)  (  2, 40, 23)  (  2, 40, 23)  (  2, 40, 23)
  1 -0.1065E-01  0  0.1447E-03  1  0.6173E-02  0  0.1478E-03  1 -0.4148E-01
   (  2, 53, 37)  (  2, 19, 11)  (  2, 53, 37)  (  2, 18, 35)  (  2, 18, 35)
  0 -0.7010E-02  0 -0.1348E-02  0 -0.1772E-03  1  0.1680E-02  0  0.3613E-03
   (  2, 16, 37)  (  2, 17, 36)  (  2, 20, 32)  (  2, 53, 37)  (  2, 53, 37)
  1 -0.1082E-02  0 -0.6049E-04  1  0.6306E-03
   (  2, 53, 37)  (  2, 53, 37)  (  2, 53, 37)

 MAXIMUM RESIDUAL FOR EACH ITERATION (1 INDICATES THE FIRST INNER ITERATION):

    RESIDUAL       RESIDUAL       RESIDUAL       RESIDUAL       RESIDUAL    
   LAYER,ROW,COL  LAYER,ROW,COL  LAYER,ROW,COL  LAYER,ROW,COL  LAYER,ROW,COL
 ---------------------------------------------------------------------------
  1 -0.8925E-03  0 -0.2133E-03  0 -0.6978E-04  0  0.1736E-04  0  0.6396E-05
   (  2, 19, 11)  (  1, 19, 12)  (  1, 19, 12)  (  1, 20, 10)  (  1, 20, 10)
  0 -0.1860E-05  1  0.6215E-03  0  0.5846E-04  0  0.1077E-04  0  0.2761E-05
   (  1, 17, 12)  (  1, 18, 35)  (  1, 18, 35)  (  1, 18, 35)  (  1, 18, 35)
  1  0.4142E-05  0  0.1183E-05  1 -0.2160E-04  0 -0.5472E-05  1  0.2303E-04
   (  1, 18, 35)  (  1, 18, 35)  (  2, 18, 35)  (  2, 18, 35)  (  2, 17, 36)
  0  0.7513E-05  0  0.1090E-05  0  0.4228E-06  1  0.1839E-06  0 -0.6315E-07
   (  2, 17, 36)  (  2, 17, 36)  (  2, 20, 33)  (  2, 34,  9)  (  2, 18, 34)
  1 -0.3807E-07  0 -0.1718E-07  1  0.2843E-07
   (  2, 15, 32)  (  2, 15, 32)  (  2, 12, 18)



 OUTPUT CONTROL FOR STRESS PERIOD    2   TIME STEP  116
    SAVE HEAD FOR ALL LAYERS
    SAVE DRAWDOWN FOR ALL LAYERS
    SAVE BUDGET
    PRINT BUDGET
 UBDSV1 SAVING "         STORAGE" ON UNIT   9 AT TIME STEP116, STRESS PERIOD   2
 UBDSV2 SAVING "   CONSTANT HEAD" ON UNIT   9 AT TIME STEP116, STRESS PERIOD   2
 UBDSV1 SAVING "FLOW RIGHT FACE " ON UNIT   9 AT TIME STEP116, STRESS PERIOD   2
 UBDSV1 SAVING "FLOW FRONT FACE " ON UNIT   9 AT TIME STEP116, STRESS PERIOD   2
 UBDSV1 SAVING "FLOW LOWER FACE " ON UNIT   9 AT TIME STEP116, STRESS PERIOD   2
 UBDSV4 SAVING "           WELLS" ON UNIT   9 AT TIME STEP116, STRESS PERIOD   2
 UBDSV4 SAVING "   RIVER LEAKAGE" ON UNIT   9 AT TIME STEP116, STRESS PERIOD   2
 UBDSV3 SAVING "              ET" ON UNIT   9 AT TIME STEP116, STRESS PERIOD   2
 UBDSV4 SAVING " HEAD DEP BOUNDS" ON UNIT   9 AT TIME STEP116, STRESS PERIOD   2
 UBDSV3 SAVING "        RECHARGE" ON UNIT   9 AT TIME STEP116, STRESS PERIOD   2
 SOLVING FOR ZETA FOR LAYER     1 ZONE     2
     2 CALLS TO PCG ROUTINE FOR TIME STEP 116 IN STRESS PERIOD    2
     4 TOTAL ITERATIONS

 MAXIMUM HEAD CHANGE FOR EACH ITERATION (1 INDICATES THE FIRST INNER ITERATION):

    HEAD CHANGE    HEAD CHANGE    HEAD CHANGE    HEAD CHANGE    HEAD CHANGE 
   LAYER,ROW,COL  LAYER,ROW,COL  LAYER,ROW,COL  LAYER,ROW,COL  LAYER,ROW,COL
 ---------------------------------------------------------------------------
  1   34.39      0  0.6974E-01  0 -0.3529E-03  1  0.1700E-05
   (  1, 18, 10)  (  1, 17, 11)  (  1, 17, 11)  (  1, 25,  7)

 MAXIMUM RESIDUAL FOR EACH ITERATION (1 INDICATES THE FIRST INNER ITERATION):

    RESIDUAL       RESIDUAL       RESIDUAL       RESIDUAL       RESIDUAL    
   LAYER,ROW,COL  LAYER,ROW,COL  LAYER,ROW,COL  LAYER,ROW,COL  LAYER,ROW,COL
 ---------------------------------------------------------------------------
  1 -0.2270E-04  0  0.1127E-06  0 -0.5153E-09  1 -0.9690E-11
   (  1, 17, 11)  (  1, 17, 11)  (  1, 25,  7)  (  1, 26,  6)


 SOLVING FOR ZETA FOR LAYER     2 ZONE     2
     2 CALLS TO PCG ROUTINE FOR TIME STEP 116 IN STRESS PERIOD    2
     4 TOTAL ITERATIONS

 MAXIMUM HEAD CHANGE FOR EACH ITERATION (1 INDICATES THE FIRST INNER ITERATION):

    HEAD CHANGE    HEAD CHANGE    HEAD CHANGE    HEAD CHANGE    HEAD CHANGE 
   LAYER,ROW,COL  LAYER,ROW,COL  LAYER,ROW,COL  LAYER,ROW,COL  LAYER,ROW,COL
 ---------------------------------------------------------------------------
  1  -6.439      0  0.4354E-01  0  0.4371E-03  1  0.7868E-05
   (  1, 17, 12)  (  1, 11, 11)  (  1, 11, 12)  (  1,  9, 11)

 MAXIMUM RESIDUAL FOR EACH ITERATION (1 INDICATES THE FIRST INNER ITERATION):

    RESIDUAL       RESIDUAL       RESIDUAL       RESIDUAL       RESIDUAL    
   LAYER,ROW,COL  LAYER,ROW,COL  LAYER,ROW,COL  LAYER,ROW,COL  LAYER,ROW,COL
 ---------------------------------------------------------------------------
  1 -0.1500E-04  0 -0.1624E-06  0 -0.3378E-08  1 -0.6021E-10
   (  1, 11, 11)  (  1, 32,  4)  (  1,  9, 11)  (  1, 10, 10)


 UBUDSV SAVING "      ZETASRF  1" ON UNIT170 AT TIME STEP116, STRESS PERIOD    2


                      VOLUMETRIC SWI ZONE BUDGET FOR ENTIRE MODEL
                     AT END OF TIME STEP  116 IN STRESS PERIOD   2
                                      ZONE     1
  -----------------------------------------------------------------------------------

        CUMULATIVE VOLUMES      L**3       RATES FOR THIS TIME STEP      L**3/T
        ------------------                 ------------------------

              IN:                                      IN:
              ---                                      ---
             BOUNDARIES =   878207040.0000            BOUNDARIES =           0.1780
          CONSTANT HEAD =           0.0000         CONSTANT HEAD =           0.0000
            ZONE CHANGE =   225365600.0000           ZONE CHANGE =       3.6998E-02
       ZONE CHG TIP/TOE =    15665765.0000      ZONE CHG TIP/TOE =       9.1724E-03
            ZONE MIXING =           0.0000           ZONE MIXING =           0.0000

               TOTAL IN =  1119238400.0000              TOTAL IN =           0.2242

             OUT:                                     OUT:
             ----                                     ----
             BOUNDARIES =  1018963328.0000            BOUNDARIES =           0.2356
          CONSTANT HEAD =           0.0000         CONSTANT HEAD =           0.0000
            ZONE CHANGE =    37908432.0000           ZONE CHANGE =       1.3002E-02
       ZONE CHG TIP/TOE =    12208754.0000      ZONE CHG TIP/TOE =       9.2085E-03
            ZONE MIXING =     2823754.5000           ZONE MIXING =       2.7941E-03

              TOTAL OUT =  1071904256.0000             TOTAL OUT =           0.2606

               IN - OUT =    47334144.0000              IN - OUT =      -3.6423E-02

    PERCENT DISCREPANCY =           4.32     PERCENT DISCREPANCY =         -15.03



                      VOLUMETRIC SWI ZONE BUDGET FOR ENTIRE MODEL
                     AT END OF TIME STEP  116 IN STRESS PERIOD   2
                                      ZONE     2
  -----------------------------------------------------------------------------------

        CUMULATIVE VOLUMES      L**3       RATES FOR THIS TIME STEP      L**3/T
        ------------------                 ------------------------

              IN:                                      IN:
              ---                                      ---
             BOUNDARIES =   193935024.0000            BOUNDARIES =           0.1431
          CONSTANT HEAD =           0.0000         CONSTANT HEAD =           0.0000
            ZONE CHANGE =    31804580.0000           ZONE CHANGE =       9.8019E-03
       ZONE CHG TIP/TOE =    39587872.0000      ZONE CHG TIP/TOE =       4.4301E-02
            ZONE MIXING =     2823754.5000           ZONE MIXING =       2.7941E-03

               TOTAL IN =   268151232.0000              TOTAL IN =           0.2000

             OUT:                                     OUT:
             ----                                     ----
             BOUNDARIES =   164099712.0000            BOUNDARIES =           0.1148
          CONSTANT HEAD =           0.0000         CONSTANT HEAD =           0.0000
            ZONE CHANGE =    84658976.0000           ZONE CHANGE =       4.8038E-02
       ZONE CHG TIP/TOE =     9980256.0000      ZONE CHG TIP/TOE =       5.5809E-03
            ZONE MIXING =           0.0000           ZONE MIXING =           0.0000

              TOTAL OUT =   258738944.0000             TOTAL OUT =           0.1684

               IN - OUT =     9412288.0000              IN - OUT =       3.1549E-02

    PERCENT DISCREPANCY =           3.57     PERCENT DISCREPANCY =          17.13


 HEAD WILL BE SAVED ON UNIT   37 AT END OF TIME STEP  116, STRESS PERIOD    2

 DRAWDOWN WILL BE SAVED ON UNIT   38 AT END OF TIME STEP  116, STRESS PERIOD    2
1
  VOLUMETRIC BUDGET FOR ENTIRE MODEL AT END OF TIME STEP  116, STRESS PERIOD   2
  ------------------------------------------------------------------------------

     CUMULATIVE VOLUMES      L**3       RATES FOR THIS TIME STEP      L**3/T
     ------------------                 ------------------------

           IN:                                      IN:
           ---                                      ---
             STORAGE =   105684840.0000               STORAGE =       2.9515E-02
       CONSTANT HEAD =           0.0000         CONSTANT HEAD =           0.0000
               WELLS =           0.0000                 WELLS =           0.0000
       RIVER LEAKAGE =   181129168.0000         RIVER LEAKAGE =       3.4000E-02
                  ET =           0.0000                    ET =           0.0000
     HEAD DEP BOUNDS =   206928592.0000       HEAD DEP BOUNDS =           0.1491
            RECHARGE =   746239808.0000              RECHARGE =           0.1575
          SWIADDTOCH =           0.0000            SWIADDTOCH =           0.0000

            TOTAL IN =  1239982336.0000              TOTAL IN =           0.3702

          OUT:                                     OUT:
          ----                                     ----
             STORAGE =      232433.4219               STORAGE =       1.9702E-04
       CONSTANT HEAD =           0.0000         CONSTANT HEAD =           0.0000
               WELLS =   694990720.0000                 WELLS =           0.3700
       RIVER LEAKAGE =    21630804.0000         RIVER LEAKAGE =           0.0000
                  ET =   166413648.0000                    ET =           0.0000
     HEAD DEP BOUNDS =   356727456.0000       HEAD DEP BOUNDS =           0.0000
            RECHARGE =           0.0000              RECHARGE =           0.0000
          SWIADDTOCH =           0.0000            SWIADDTOCH =           0.0000

           TOTAL OUT =  1239995008.0000             TOTAL OUT =           0.3702

            IN - OUT =      -12672.0000              IN - OUT =           0.0000

 PERCENT DISCREPANCY =          -0.00     PERCENT DISCREPANCY =           0.00






         TIME SUMMARY AT END OF TIME STEP  116 IN STRESS PERIOD    2
                    SECONDS     MINUTES      HOURS       DAYS        YEARS
                    -----------------------------------------------------------
   TIME STEP LENGTH 1.57680E+07 2.62800E+05  4380.0      182.50     0.49966    
 STRESS PERIOD TIME 1.82909E+09 3.04849E+07 5.08081E+05  21170.      57.960    
         TOTAL TIME 4.98270E+09 8.30449E+07 1.38408E+06  57670.      157.89    
1
 
 SOLVING FOR HEAD 

 CELL CONVERSIONS FOR ITER.=  2  LAYER=  1  STEP=117  PERIOD=   2   (ROW,COL)
    DRY( 32, 33)   DRY( 33, 26)   
     9 CALLS TO PCG ROUTINE FOR TIME STEP 117 IN STRESS PERIOD    2
    23 TOTAL ITERATIONS

 MAXIMUM HEAD CHANGE FOR EACH ITERATION (1 INDICATES THE FIRST INNER ITERATION):

    HEAD CHANGE    HEAD CHANGE    HEAD CHANGE    HEAD CHANGE    HEAD CHANGE 
   LAYER,ROW,COL  LAYER,ROW,COL  LAYER,ROW,COL  LAYER,ROW,COL  LAYER,ROW,COL
 ---------------------------------------------------------------------------
  1 -0.3211      0 -0.1044      0 -0.2859E-01  0  0.7628E-02  0 -0.2921E-02
   (  2, 16, 12)  (  1, 18, 11)  (  2,  6, 11)  (  2,  7, 13)  (  1, 19, 12)
  0  0.8297E-03  1 -0.3569E-01  0  0.7787E-02  0  0.2249E-02  0  0.6404E-03
   (  2,  5, 11)  (  2, 32, 33)  (  2, 51, 34)  (  2, 51, 34)  (  2, 51, 34)
  1 -0.1308E-01  0 -0.4622E-03  1  0.5741E-02  0  0.1834E-03  1 -0.3723E-02
   (  2, 51, 34)  (  2, 51, 34)  (  2, 53, 37)  (  2, 53, 37)  (  2, 53, 37)
  0 -0.8438E-04  1  0.2432E-02  0  0.4369E-04  1 -0.1605E-02  0 -0.2342E-04
   (  2, 53, 37)  (  2, 53, 37)  (  2, 53, 37)  (  2, 53, 37)  (  2, 53, 37)
  1  0.1061E-02  0  0.1549E-04  1 -0.7016E-03
   (  2, 53, 37)  (  2, 53, 37)  (  2, 53, 37)

 MAXIMUM RESIDUAL FOR EACH ITERATION (1 INDICATES THE FIRST INNER ITERATION):

    RESIDUAL       RESIDUAL       RESIDUAL       RESIDUAL       RESIDUAL    
   LAYER,ROW,COL  LAYER,ROW,COL  LAYER,ROW,COL  LAYER,ROW,COL  LAYER,ROW,COL
 ---------------------------------------------------------------------------
  1  0.1008E-02  0  0.2062E-03  0  0.6161E-04  0 -0.2348E-04  0  0.6717E-05
   (  2, 19, 11)  (  2, 17, 11)  (  2, 20, 10)  (  1, 23,  5)  (  1, 16, 12)
  0 -0.2202E-05  1  0.2473E-04  0  0.8797E-05  0  0.2061E-05  0  0.5078E-06
   (  2, 15, 12)  (  2, 33, 26)  (  2, 34, 25)  (  2, 33, 32)  (  2, 30, 35)
  1 -0.5113E-06  0 -0.2564E-06  1 -0.3086E-06  0 -0.7816E-07  1 -0.1243E-06
   (  2,  5, 11)  (  2, 31, 33)  (  2,  5, 11)  (  2, 50, 35)  (  2,  5, 11)
  0  0.3967E-07  1 -0.7033E-07  0  0.2038E-07  1 -0.3615E-07  0 -0.1280E-07
   (  2, 50, 35)  (  2,  5, 11)  (  2, 53, 32)  (  2,  5, 11)  (  2, 12, 18)
  1  0.2705E-07  0  0.1134E-07  1 -0.2472E-07
   (  2, 12, 18)  (  2, 12, 18)  (  2, 12, 18)



 OUTPUT CONTROL FOR STRESS PERIOD    2   TIME STEP  117
    SAVE HEAD FOR ALL LAYERS
    SAVE DRAWDOWN FOR ALL LAYERS
    SAVE BUDGET
    PRINT BUDGET
 UBDSV1 SAVING "         STORAGE" ON UNIT   9 AT TIME STEP117, STRESS PERIOD   2
 UBDSV2 SAVING "   CONSTANT HEAD" ON UNIT   9 AT TIME STEP117, STRESS PERIOD   2
 UBDSV1 SAVING "FLOW RIGHT FACE " ON UNIT   9 AT TIME STEP117, STRESS PERIOD   2
 UBDSV1 SAVING "FLOW FRONT FACE " ON UNIT   9 AT TIME STEP117, STRESS PERIOD   2
 UBDSV1 SAVING "FLOW LOWER FACE " ON UNIT   9 AT TIME STEP117, STRESS PERIOD   2
 UBDSV4 SAVING "           WELLS" ON UNIT   9 AT TIME STEP117, STRESS PERIOD   2
 UBDSV4 SAVING "   RIVER LEAKAGE" ON UNIT   9 AT TIME STEP117, STRESS PERIOD   2
 UBDSV3 SAVING "              ET" ON UNIT   9 AT TIME STEP117, STRESS PERIOD   2
 UBDSV4 SAVING " HEAD DEP BOUNDS" ON UNIT   9 AT TIME STEP117, STRESS PERIOD   2
 UBDSV3 SAVING "        RECHARGE" ON UNIT   9 AT TIME STEP117, STRESS PERIOD   2
 SOLVING FOR ZETA FOR LAYER     1 ZONE     2
     2 CALLS TO PCG ROUTINE FOR TIME STEP 117 IN STRESS PERIOD    2
     4 TOTAL ITERATIONS

 MAXIMUM HEAD CHANGE FOR EACH ITERATION (1 INDICATES THE FIRST INNER ITERATION):

    HEAD CHANGE    HEAD CHANGE    HEAD CHANGE    HEAD CHANGE    HEAD CHANGE 
   LAYER,ROW,COL  LAYER,ROW,COL  LAYER,ROW,COL  LAYER,ROW,COL  LAYER,ROW,COL
 ---------------------------------------------------------------------------
  1   16.61      0  0.6058E-01  0 -0.6973E-03  1  0.5793E-05
   (  1, 19, 10)  (  1, 19, 11)  (  1, 22,  5)  (  1, 23,  5)

 MAXIMUM RESIDUAL FOR EACH ITERATION (1 INDICATES THE FIRST INNER ITERATION):

    RESIDUAL       RESIDUAL       RESIDUAL       RESIDUAL       RESIDUAL    
   LAYER,ROW,COL  LAYER,ROW,COL  LAYER,ROW,COL  LAYER,ROW,COL  LAYER,ROW,COL
 ---------------------------------------------------------------------------
  1 -0.2339E-04  0  0.2412E-06  0  0.2243E-08  1  0.3683E-10
   (  1, 24,  4)  (  1, 22,  5)  (  1, 23,  4)  (  1, 22,  5)


 SOLVING FOR ZETA FOR LAYER     2 ZONE     2
     2 CALLS TO PCG ROUTINE FOR TIME STEP 117 IN STRESS PERIOD    2
     4 TOTAL ITERATIONS

 MAXIMUM HEAD CHANGE FOR EACH ITERATION (1 INDICATES THE FIRST INNER ITERATION):

    HEAD CHANGE    HEAD CHANGE    HEAD CHANGE    HEAD CHANGE    HEAD CHANGE 
   LAYER,ROW,COL  LAYER,ROW,COL  LAYER,ROW,COL  LAYER,ROW,COL  LAYER,ROW,COL
 ---------------------------------------------------------------------------
  1   8.843      0  0.4871E-01  0  0.4922E-03  1  0.4780E-05
   (  1, 17, 11)  (  1, 15, 12)  (  1, 11, 12)  (  1, 33,  3)

 MAXIMUM RESIDUAL FOR EACH ITERATION (1 INDICATES THE FIRST INNER ITERATION):

    RESIDUAL       RESIDUAL       RESIDUAL       RESIDUAL       RESIDUAL    
   LAYER,ROW,COL  LAYER,ROW,COL  LAYER,ROW,COL  LAYER,ROW,COL  LAYER,ROW,COL
 ---------------------------------------------------------------------------
  1 -0.1395E-04  0 -0.1593E-06  0 -0.1700E-08  1  0.2333E-10
   (  1, 11, 11)  (  1, 16, 11)  (  1, 33,  3)  (  1, 29,  5)


 UBUDSV SAVING "      ZETASRF  1" ON UNIT170 AT TIME STEP117, STRESS PERIOD    2


                      VOLUMETRIC SWI ZONE BUDGET FOR ENTIRE MODEL
                     AT END OF TIME STEP  117 IN STRESS PERIOD   2
                                      ZONE     1
  -----------------------------------------------------------------------------------

        CUMULATIVE VOLUMES      L**3       RATES FOR THIS TIME STEP      L**3/T
        ------------------                 ------------------------

              IN:                                      IN:
              ---                                      ---
             BOUNDARIES =   881009344.0000            BOUNDARIES =           0.1777
          CONSTANT HEAD =           0.0000         CONSTANT HEAD =           0.0000
            ZONE CHANGE =   226062896.0000           ZONE CHANGE =       4.4222E-02
       ZONE CHG TIP/TOE =    15775710.0000      ZONE CHG TIP/TOE =       6.9726E-03
            ZONE MIXING =           0.0000           ZONE MIXING =           0.0000

               TOTAL IN =  1122848000.0000              TOTAL IN =           0.2289

             OUT:                                     OUT:
             ----                                     ----
             BOUNDARIES =  1022217088.0000            BOUNDARIES =           0.2064
          CONSTANT HEAD =           0.0000         CONSTANT HEAD =           0.0000
            ZONE CHANGE =    38101156.0000           ZONE CHANGE =       1.2223E-02
       ZONE CHG TIP/TOE =    12251087.0000      ZONE CHG TIP/TOE =       2.6847E-03
            ZONE MIXING =     3017100.7500           ZONE MIXING =       1.2262E-02

              TOTAL OUT =  1075586432.0000             TOTAL OUT =           0.2335

               IN - OUT =    47261568.0000              IN - OUT =      -4.6042E-03

    PERCENT DISCREPANCY =           4.30     PERCENT DISCREPANCY =          -1.99



                      VOLUMETRIC SWI ZONE BUDGET FOR ENTIRE MODEL
                     AT END OF TIME STEP  117 IN STRESS PERIOD   2
                                      ZONE     2
  -----------------------------------------------------------------------------------

        CUMULATIVE VOLUMES      L**3       RATES FOR THIS TIME STEP      L**3/T
        ------------------                 ------------------------

              IN:                                      IN:
              ---                                      ---
             BOUNDARIES =   196196592.0000            BOUNDARIES =           0.1434
          CONSTANT HEAD =           0.0000         CONSTANT HEAD =           0.0000
            ZONE CHANGE =    31965830.0000           ZONE CHANGE =       1.0226E-02
       ZONE CHG TIP/TOE =    39773356.0000      ZONE CHG TIP/TOE =       1.1763E-02
            ZONE MIXING =     3017100.7500           ZONE MIXING =       1.2262E-02

               TOTAL IN =   270952896.0000              TOTAL IN =           0.1777

             OUT:                                     OUT:
             ----                                     ----
             BOUNDARIES =   166371136.0000            BOUNDARIES =           0.1441
          CONSTANT HEAD =           0.0000         CONSTANT HEAD =           0.0000
            ZONE CHANGE =    85112944.0000           ZONE CHANGE =       2.8791E-02
       ZONE CHG TIP/TOE =    10060598.0000      ZONE CHG TIP/TOE =       5.0952E-03
            ZONE MIXING =           0.0000           ZONE MIXING =           0.0000

              TOTAL OUT =   261544672.0000             TOTAL OUT =           0.1779

               IN - OUT =     9408224.0000              IN - OUT =      -2.5995E-04

    PERCENT DISCREPANCY =           3.53     PERCENT DISCREPANCY =          -0.15


 HEAD WILL BE SAVED ON UNIT   37 AT END OF TIME STEP  117, STRESS PERIOD    2

 DRAWDOWN WILL BE SAVED ON UNIT   38 AT END OF TIME STEP  117, STRESS PERIOD    2
1
  VOLUMETRIC BUDGET FOR ENTIRE MODEL AT END OF TIME STEP  117, STRESS PERIOD   2
  ------------------------------------------------------------------------------

     CUMULATIVE VOLUMES      L**3       RATES FOR THIS TIME STEP      L**3/T
     ------------------                 ------------------------

           IN:                                      IN:
           ---                                      ---
             STORAGE =   106154336.0000               STORAGE =       2.9775E-02
       CONSTANT HEAD =           0.0000         CONSTANT HEAD =           0.0000
               WELLS =           0.0000                 WELLS =           0.0000
       RIVER LEAKAGE =   181665280.0000         RIVER LEAKAGE =       3.4000E-02
                  ET =           0.0000                    ET =           0.0000
     HEAD DEP BOUNDS =   209287328.0000       HEAD DEP BOUNDS =           0.1496
            RECHARGE =   748717824.0000              RECHARGE =           0.1572
          SWIADDTOCH =           0.0000            SWIADDTOCH =           0.0000

            TOTAL IN =  1245824768.0000              TOTAL IN =           0.3705

          OUT:                                     OUT:
          ----                                     ----
             STORAGE =      240626.2656               STORAGE =       5.1959E-04
       CONSTANT HEAD =           0.0000         CONSTANT HEAD =           0.0000
               WELLS =   700824896.0000                 WELLS =           0.3700
       RIVER LEAKAGE =    21630804.0000         RIVER LEAKAGE =           0.0000
                  ET =   166413648.0000                    ET =           0.0000
     HEAD DEP BOUNDS =   356727456.0000       HEAD DEP BOUNDS =           0.0000
            RECHARGE =           0.0000              RECHARGE =           0.0000
          SWIADDTOCH =           0.0000            SWIADDTOCH =           0.0000

           TOTAL OUT =  1245837440.0000             TOTAL OUT =           0.3705

            IN - OUT =      -12672.0000              IN - OUT =       5.9605E-08

 PERCENT DISCREPANCY =          -0.00     PERCENT DISCREPANCY =           0.00






         TIME SUMMARY AT END OF TIME STEP  117 IN STRESS PERIOD    2
                    SECONDS     MINUTES      HOURS       DAYS        YEARS
                    -----------------------------------------------------------
   TIME STEP LENGTH 1.57680E+07 2.62800E+05  4380.0      182.50     0.49966    
 STRESS PERIOD TIME 1.84486E+09 3.07477E+07 5.12461E+05  21353.      58.460    
         TOTAL TIME 4.99846E+09 8.33077E+07 1.38846E+06  57853.      158.39    
1
 
 SOLVING FOR HEAD 

 CELL CONVERSIONS FOR ITER.=  2  LAYER=  1  STEP=118  PERIOD=   2   (ROW,COL)
    DRY( 16, 35)   DRY( 20, 35)   DRY( 33, 27)   
    10 CALLS TO PCG ROUTINE FOR TIME STEP 118 IN STRESS PERIOD    2
    25 TOTAL ITERATIONS

 MAXIMUM HEAD CHANGE FOR EACH ITERATION (1 INDICATES THE FIRST INNER ITERATION):

    HEAD CHANGE    HEAD CHANGE    HEAD CHANGE    HEAD CHANGE    HEAD CHANGE 
   LAYER,ROW,COL  LAYER,ROW,COL  LAYER,ROW,COL  LAYER,ROW,COL  LAYER,ROW,COL
 ---------------------------------------------------------------------------
  1 -0.3264      0 -0.1209      0 -0.2491E-01  0 -0.4588E-02  0 -0.1544E-02
   (  2, 18, 11)  (  1, 16, 12)  (  2, 20, 12)  (  1, 20, 11)  (  2,  7, 10)
  0 -0.5746E-03  1 -0.4235E-01  0 -0.8128E-02  0  0.1941E-02  0  0.4535E-03
   (  2,  5, 12)  (  2, 16, 35)  (  2, 15, 36)  (  2, 51, 34)  (  2, 51, 34)
  1 -0.1736E-01  0 -0.5757E-03  1  0.9547E-02  0  0.1951E-03  1 -0.5259E-02
   (  2, 51, 34)  (  2, 51, 34)  (  2, 51, 34)  (  2, 51, 34)  (  2, 51, 34)
  0 -0.9839E-04  1  0.2900E-02  0  0.5259E-04  1 -0.2055E-02  0 -0.3333E-04
   (  2, 51, 34)  (  2, 51, 34)  (  2, 53, 37)  (  2, 53, 37)  (  2, 53, 37)
  1  0.1509E-02  0  0.1947E-04  1 -0.1114E-02  0 -0.1247E-04  1  0.8241E-03
   (  2, 53, 37)  (  2, 53, 37)  (  2, 53, 37)  (  2, 53, 37)  (  2, 53, 37)

 MAXIMUM RESIDUAL FOR EACH ITERATION (1 INDICATES THE FIRST INNER ITERATION):

    RESIDUAL       RESIDUAL       RESIDUAL       RESIDUAL       RESIDUAL    
   LAYER,ROW,COL  LAYER,ROW,COL  LAYER,ROW,COL  LAYER,ROW,COL  LAYER,ROW,COL
 ---------------------------------------------------------------------------
  1  0.5857E-03  0 -0.1671E-03  0 -0.3902E-04  0  0.1519E-04  0 -0.5636E-05
   (  1, 16, 12)  (  2, 19, 11)  (  2, 19, 11)  (  1, 23,  6)  (  1, 16, 12)
  0  0.1956E-05  1  0.2245E-04  0  0.8329E-05  0  0.1750E-05  0  0.5105E-06
   (  2, 16, 12)  (  2, 21, 34)  (  2, 17, 34)  (  2, 17, 34)  (  2, 18, 33)
  1  0.5544E-06  0 -0.1599E-06  1  0.2696E-06  0 -0.9610E-07  1  0.1764E-06
   (  2,  5, 11)  (  2, 32, 26)  (  2,  5, 11)  (  2, 50, 35)  (  2,  5, 11)
  0  0.6193E-07  1  0.8932E-07  0 -0.3441E-07  1  0.5931E-07  0  0.2051E-07
   (  2, 50, 35)  (  2,  5, 11)  (  2, 50, 35)  (  2,  5, 11)  (  2, 50, 35)
  1  0.3274E-07  0 -0.1213E-07  1  0.2225E-07  0  0.7505E-08  1  0.1452E-07
   (  2,  5, 11)  (  2, 51, 35)  (  2,  5, 11)  (  2, 51, 35)  (  2,  5, 11)



 OUTPUT CONTROL FOR STRESS PERIOD    2   TIME STEP  118
    SAVE HEAD FOR ALL LAYERS
    SAVE DRAWDOWN FOR ALL LAYERS
    SAVE BUDGET
    PRINT BUDGET
 UBDSV1 SAVING "         STORAGE" ON UNIT   9 AT TIME STEP118, STRESS PERIOD   2
 UBDSV2 SAVING "   CONSTANT HEAD" ON UNIT   9 AT TIME STEP118, STRESS PERIOD   2
 UBDSV1 SAVING "FLOW RIGHT FACE " ON UNIT   9 AT TIME STEP118, STRESS PERIOD   2
 UBDSV1 SAVING "FLOW FRONT FACE " ON UNIT   9 AT TIME STEP118, STRESS PERIOD   2
 UBDSV1 SAVING "FLOW LOWER FACE " ON UNIT   9 AT TIME STEP118, STRESS PERIOD   2
 UBDSV4 SAVING "           WELLS" ON UNIT   9 AT TIME STEP118, STRESS PERIOD   2
 UBDSV4 SAVING "   RIVER LEAKAGE" ON UNIT   9 AT TIME STEP118, STRESS PERIOD   2
 UBDSV3 SAVING "              ET" ON UNIT   9 AT TIME STEP118, STRESS PERIOD   2
 UBDSV4 SAVING " HEAD DEP BOUNDS" ON UNIT   9 AT TIME STEP118, STRESS PERIOD   2
 UBDSV3 SAVING "        RECHARGE" ON UNIT   9 AT TIME STEP118, STRESS PERIOD   2
 SOLVING FOR ZETA FOR LAYER     1 ZONE     2
     2 CALLS TO PCG ROUTINE FOR TIME STEP 118 IN STRESS PERIOD    2
     5 TOTAL ITERATIONS

 MAXIMUM HEAD CHANGE FOR EACH ITERATION (1 INDICATES THE FIRST INNER ITERATION):

    HEAD CHANGE    HEAD CHANGE    HEAD CHANGE    HEAD CHANGE    HEAD CHANGE 
   LAYER,ROW,COL  LAYER,ROW,COL  LAYER,ROW,COL  LAYER,ROW,COL  LAYER,ROW,COL
 ---------------------------------------------------------------------------
  1   34.16      0  0.1855      0  0.2118E-02  0 -0.1686E-04  1  0.1433E-05
   (  1, 18, 10)  (  1, 17,  6)  (  1, 16,  7)  (  1, 16, 12)  (  1, 18, 10)

 MAXIMUM RESIDUAL FOR EACH ITERATION (1 INDICATES THE FIRST INNER ITERATION):

    RESIDUAL       RESIDUAL       RESIDUAL       RESIDUAL       RESIDUAL    
   LAYER,ROW,COL  LAYER,ROW,COL  LAYER,ROW,COL  LAYER,ROW,COL  LAYER,ROW,COL
 ---------------------------------------------------------------------------
  1 -0.5813E-04  0 -0.7224E-06  0 -0.4861E-08  0  0.4444E-10  1 -0.2349E-11
   (  1, 17,  6)  (  1, 16,  7)  (  1, 18,  7)  (  1, 16, 10)  (  1, 17, 11)


 SOLVING FOR ZETA FOR LAYER     2 ZONE     2
     2 CALLS TO PCG ROUTINE FOR TIME STEP 118 IN STRESS PERIOD    2
     4 TOTAL ITERATIONS

 MAXIMUM HEAD CHANGE FOR EACH ITERATION (1 INDICATES THE FIRST INNER ITERATION):

    HEAD CHANGE    HEAD CHANGE    HEAD CHANGE    HEAD CHANGE    HEAD CHANGE 
   LAYER,ROW,COL  LAYER,ROW,COL  LAYER,ROW,COL  LAYER,ROW,COL  LAYER,ROW,COL
 ---------------------------------------------------------------------------
  1  -6.093      0  0.5967E-01  0  0.5036E-03  1  0.8439E-05
   (  1, 17, 12)  (  1, 15, 12)  (  1, 11, 12)  (  1,  9, 11)

 MAXIMUM RESIDUAL FOR EACH ITERATION (1 INDICATES THE FIRST INNER ITERATION):

    RESIDUAL       RESIDUAL       RESIDUAL       RESIDUAL       RESIDUAL    
   LAYER,ROW,COL  LAYER,ROW,COL  LAYER,ROW,COL  LAYER,ROW,COL  LAYER,ROW,COL
 ---------------------------------------------------------------------------
  1 -0.1702E-04  0 -0.1562E-06  0 -0.3573E-08  1 -0.6400E-10
   (  1, 15, 12)  (  1, 16, 11)  (  1,  9, 11)  (  1, 10, 10)


 UBUDSV SAVING "      ZETASRF  1" ON UNIT170 AT TIME STEP118, STRESS PERIOD    2


                      VOLUMETRIC SWI ZONE BUDGET FOR ENTIRE MODEL
                     AT END OF TIME STEP  118 IN STRESS PERIOD   2
                                      ZONE     1
  -----------------------------------------------------------------------------------

        CUMULATIVE VOLUMES      L**3       RATES FOR THIS TIME STEP      L**3/T
        ------------------                 ------------------------

              IN:                                      IN:
              ---                                      ---
             BOUNDARIES =   883804288.0000            BOUNDARIES =           0.1773
          CONSTANT HEAD =           0.0000         CONSTANT HEAD =           0.0000
            ZONE CHANGE =   226727488.0000           ZONE CHANGE =       4.2148E-02
       ZONE CHG TIP/TOE =    15819347.0000      ZONE CHG TIP/TOE =       2.7675E-03
            ZONE MIXING =           0.0000           ZONE MIXING =           0.0000

               TOTAL IN =  1126351104.0000              TOTAL IN =           0.2222

             OUT:                                     OUT:
             ----                                     ----
             BOUNDARIES =  1026920768.0000            BOUNDARIES =           0.2983
          CONSTANT HEAD =           0.0000         CONSTANT HEAD =           0.0000
            ZONE CHANGE =    38285556.0000           ZONE CHANGE =       1.1695E-02
       ZONE CHG TIP/TOE =    12275139.0000      ZONE CHG TIP/TOE =       1.5254E-03
            ZONE MIXING =     3017100.7500           ZONE MIXING =           0.0000

              TOTAL OUT =  1080498560.0000             TOTAL OUT =           0.3115

               IN - OUT =    45852544.0000              IN - OUT =      -8.9358E-02

    PERCENT DISCREPANCY =           4.16     PERCENT DISCREPANCY =         -33.49



                      VOLUMETRIC SWI ZONE BUDGET FOR ENTIRE MODEL
                     AT END OF TIME STEP  118 IN STRESS PERIOD   2
                                      ZONE     2
  -----------------------------------------------------------------------------------

        CUMULATIVE VOLUMES      L**3       RATES FOR THIS TIME STEP      L**3/T
        ------------------                 ------------------------

              IN:                                      IN:
              ---                                      ---
             BOUNDARIES =   198463728.0000            BOUNDARIES =           0.1438
          CONSTANT HEAD =           0.0000         CONSTANT HEAD =           0.0000
            ZONE CHANGE =    32117448.0000           ZONE CHANGE =       9.6156E-03
       ZONE CHG TIP/TOE =    41146324.0000      ZONE CHG TIP/TOE =       8.7073E-02
            ZONE MIXING =     3017100.7500           ZONE MIXING =           0.0000

               TOTAL IN =   274744608.0000              TOTAL IN =           0.2405

             OUT:                                     OUT:
             ----                                     ----
             BOUNDARIES =   167192608.0000            BOUNDARIES =       5.2097E-02
          CONSTANT HEAD =           0.0000         CONSTANT HEAD =           0.0000
            ZONE CHANGE =    86743200.0000           ZONE CHANGE =           0.1034
       ZONE CHG TIP/TOE =    10068598.0000      ZONE CHG TIP/TOE =       5.0736E-04
            ZONE MIXING =           0.0000           ZONE MIXING =           0.0000

              TOTAL OUT =   264004416.0000             TOTAL OUT =           0.1560

               IN - OUT =    10740192.0000              IN - OUT =       8.4475E-02

    PERCENT DISCREPANCY =           3.99     PERCENT DISCREPANCY =          42.61


 HEAD WILL BE SAVED ON UNIT   37 AT END OF TIME STEP  118, STRESS PERIOD    2

 DRAWDOWN WILL BE SAVED ON UNIT   38 AT END OF TIME STEP  118, STRESS PERIOD    2
1
  VOLUMETRIC BUDGET FOR ENTIRE MODEL AT END OF TIME STEP  118, STRESS PERIOD   2
  ------------------------------------------------------------------------------

     CUMULATIVE VOLUMES      L**3       RATES FOR THIS TIME STEP      L**3/T
     ------------------                 ------------------------

           IN:                                      IN:
           ---                                      ---
             STORAGE =   106620856.0000               STORAGE =       2.9586E-02
       CONSTANT HEAD =           0.0000         CONSTANT HEAD =           0.0000
               WELLS =           0.0000                 WELLS =           0.0000
       RIVER LEAKAGE =   182201392.0000         RIVER LEAKAGE =       3.4000E-02
                  ET =           0.0000                    ET =           0.0000
     HEAD DEP BOUNDS =   211653280.0000       HEAD DEP BOUNDS =           0.1500
            RECHARGE =   751186816.0000              RECHARGE =           0.1566
          SWIADDTOCH =           0.0000            SWIADDTOCH =           0.0000

            TOTAL IN =  1251662336.0000              TOTAL IN =           0.3702

          OUT:                                     OUT:
          ----                                     ----
             STORAGE =      244043.3438               STORAGE =       2.1671E-04
       CONSTANT HEAD =           0.0000         CONSTANT HEAD =           0.0000
               WELLS =   706659072.0000                 WELLS =           0.3700
       RIVER LEAKAGE =    21630804.0000         RIVER LEAKAGE =           0.0000
                  ET =   166413648.0000                    ET =           0.0000
     HEAD DEP BOUNDS =   356727456.0000       HEAD DEP BOUNDS =           0.0000
            RECHARGE =           0.0000              RECHARGE =           0.0000
          SWIADDTOCH =           0.0000            SWIADDTOCH =           0.0000

           TOTAL OUT =  1251675008.0000             TOTAL OUT =           0.3702

            IN - OUT =      -12672.0000              IN - OUT =           0.0000

 PERCENT DISCREPANCY =          -0.00     PERCENT DISCREPANCY =           0.00






         TIME SUMMARY AT END OF TIME STEP  118 IN STRESS PERIOD    2
                    SECONDS     MINUTES      HOURS       DAYS        YEARS
                    -----------------------------------------------------------
   TIME STEP LENGTH 1.57680E+07 2.62800E+05  4380.0      182.50     0.49966    
 STRESS PERIOD TIME 1.86063E+09 3.10105E+07 5.16841E+05  21535.      58.960    
         TOTAL TIME 5.01423E+09 8.35705E+07 1.39284E+06  58035.      158.89    
1
 
 SOLVING FOR HEAD 

 CELL CONVERSIONS FOR ITER.=  2  LAYER=  2  STEP=119  PERIOD=   2   (ROW,COL)
    DRY( 11, 20)   
    12 CALLS TO PCG ROUTINE FOR TIME STEP 119 IN STRESS PERIOD    2
    29 TOTAL ITERATIONS

 MAXIMUM HEAD CHANGE FOR EACH ITERATION (1 INDICATES THE FIRST INNER ITERATION):

    HEAD CHANGE    HEAD CHANGE    HEAD CHANGE    HEAD CHANGE    HEAD CHANGE 
   LAYER,ROW,COL  LAYER,ROW,COL  LAYER,ROW,COL  LAYER,ROW,COL  LAYER,ROW,COL
 ---------------------------------------------------------------------------
  1 -0.3306      0  0.1080      0 -0.2755E-01  0 -0.5856E-02  0 -0.1608E-02
   (  2, 18, 12)  (  1, 17, 12)  (  1, 17, 11)  (  1, 16, 12)  (  1, 16, 12)
  0  0.5009E-03  1  0.1984E-01  0  0.7694E-02  0  0.2272E-02  0  0.4915E-03
   (  2,  6, 10)  (  2, 51, 34)  (  2, 51, 34)  (  2, 51, 34)  (  2, 51, 34)
  1 -0.2065E-01  0 -0.3187E-03  1  0.1403E-01  0  0.2267E-03  1 -0.9593E-02
   (  2, 51, 34)  (  2, 51, 34)  (  2, 51, 34)  (  2, 51, 34)  (  2, 51, 34)
  0 -0.1467E-03  1  0.6502E-02  0  0.1059E-03  1 -0.4442E-02  0 -0.6469E-04
   (  2, 51, 34)  (  2, 51, 34)  (  2, 51, 34)  (  2, 51, 34)  (  2, 51, 34)
  1  0.3025E-02  0  0.4379E-04  1 -0.2072E-02  0 -0.2623E-04  1  0.1420E-02
   (  2, 51, 34)  (  2, 51, 34)  (  2, 51, 34)  (  2, 51, 34)  (  2, 51, 34)
  0  0.1858E-04  1 -0.1015E-02  0 -0.1347E-04  1  0.8192E-03
   (  2, 53, 37)  (  2, 53, 37)  (  2, 53, 37)  (  2, 53, 37)

 MAXIMUM RESIDUAL FOR EACH ITERATION (1 INDICATES THE FIRST INNER ITERATION):

    RESIDUAL       RESIDUAL       RESIDUAL       RESIDUAL       RESIDUAL    
   LAYER,ROW,COL  LAYER,ROW,COL  LAYER,ROW,COL  LAYER,ROW,COL  LAYER,ROW,COL
 ---------------------------------------------------------------------------
  1  0.8264E-03  0  0.2317E-03  0 -0.5090E-04  0 -0.2068E-04  0 -0.5831E-05
   (  2, 20, 11)  (  2, 18, 11)  (  1, 13, 10)  (  1, 13, 10)  (  1, 13, 10)
  0  0.1953E-05  1 -0.5853E-05  0 -0.2060E-05  0  0.5987E-06  0  0.1838E-06
   (  1, 18, 12)  (  2, 19, 12)  (  2, 19, 12)  (  2, 18, 11)  (  2, 18, 11)
  1 -0.4750E-06  0 -0.1176E-06  1  0.2075E-06  0 -0.1150E-06  1  0.1592E-06
   (  2, 18, 11)  (  2, 49, 35)  (  2,  5, 12)  (  2, 51, 35)  (  2, 50, 35)
  0  0.7961E-07  1  0.1197E-06  0 -0.6069E-07  1  0.7778E-07  0  0.4073E-07
   (  2, 51, 35)  (  2,  5, 12)  (  2, 51, 35)  (  2, 51, 35)  (  2, 51, 35)
  1  0.5779E-07  0 -0.2999E-07  1  0.3881E-07  0  0.2041E-07  1  0.2955E-07
   (  2,  5, 12)  (  2, 51, 35)  (  2, 51, 35)  (  2, 51, 35)  (  2,  5, 11)
  0 -0.1503E-07  1  0.1996E-07  0  0.1036E-07  1  0.1674E-07
   (  2, 51, 35)  (  2,  5, 11)  (  2, 51, 35)  (  2,  5, 11)



 OUTPUT CONTROL FOR STRESS PERIOD    2   TIME STEP  119
    SAVE HEAD FOR ALL LAYERS
    SAVE DRAWDOWN FOR ALL LAYERS
    SAVE BUDGET
    PRINT BUDGET
 UBDSV1 SAVING "         STORAGE" ON UNIT   9 AT TIME STEP119, STRESS PERIOD   2
 UBDSV2 SAVING "   CONSTANT HEAD" ON UNIT   9 AT TIME STEP119, STRESS PERIOD   2
 UBDSV1 SAVING "FLOW RIGHT FACE " ON UNIT   9 AT TIME STEP119, STRESS PERIOD   2
 UBDSV1 SAVING "FLOW FRONT FACE " ON UNIT   9 AT TIME STEP119, STRESS PERIOD   2
 UBDSV1 SAVING "FLOW LOWER FACE " ON UNIT   9 AT TIME STEP119, STRESS PERIOD   2
 UBDSV4 SAVING "           WELLS" ON UNIT   9 AT TIME STEP119, STRESS PERIOD   2
 UBDSV4 SAVING "   RIVER LEAKAGE" ON UNIT   9 AT TIME STEP119, STRESS PERIOD   2
 UBDSV3 SAVING "              ET" ON UNIT   9 AT TIME STEP119, STRESS PERIOD   2
 UBDSV4 SAVING " HEAD DEP BOUNDS" ON UNIT   9 AT TIME STEP119, STRESS PERIOD   2
 UBDSV3 SAVING "        RECHARGE" ON UNIT   9 AT TIME STEP119, STRESS PERIOD   2
 SOLVING FOR ZETA FOR LAYER     1 ZONE     2
     2 CALLS TO PCG ROUTINE FOR TIME STEP 119 IN STRESS PERIOD    2
     4 TOTAL ITERATIONS

 MAXIMUM HEAD CHANGE FOR EACH ITERATION (1 INDICATES THE FIRST INNER ITERATION):

    HEAD CHANGE    HEAD CHANGE    HEAD CHANGE    HEAD CHANGE    HEAD CHANGE 
   LAYER,ROW,COL  LAYER,ROW,COL  LAYER,ROW,COL  LAYER,ROW,COL  LAYER,ROW,COL
 ---------------------------------------------------------------------------
  1   9.812      0  0.4901E-01  0  0.6015E-03  1  0.3181E-05
   (  1, 16, 11)  (  1, 24,  4)  (  1, 23,  5)  (  1, 24,  4)

 MAXIMUM RESIDUAL FOR EACH ITERATION (1 INDICATES THE FIRST INNER ITERATION):

    RESIDUAL       RESIDUAL       RESIDUAL       RESIDUAL       RESIDUAL    
   LAYER,ROW,COL  LAYER,ROW,COL  LAYER,ROW,COL  LAYER,ROW,COL  LAYER,ROW,COL
 ---------------------------------------------------------------------------
  1 -0.2024E-04  0 -0.2174E-06  0 -0.9851E-09  1 -0.1544E-10
   (  1, 24,  4)  (  1, 23,  5)  (  1, 24,  4)  (  1, 23,  5)


 SOLVING FOR ZETA FOR LAYER     2 ZONE     2
     2 CALLS TO PCG ROUTINE FOR TIME STEP 119 IN STRESS PERIOD    2
     4 TOTAL ITERATIONS

 MAXIMUM HEAD CHANGE FOR EACH ITERATION (1 INDICATES THE FIRST INNER ITERATION):

    HEAD CHANGE    HEAD CHANGE    HEAD CHANGE    HEAD CHANGE    HEAD CHANGE 
   LAYER,ROW,COL  LAYER,ROW,COL  LAYER,ROW,COL  LAYER,ROW,COL  LAYER,ROW,COL
 ---------------------------------------------------------------------------
  1   9.441      0  0.5157E-01  0  0.6758E-03  1  0.4332E-05
   (  1, 17, 11)  (  1, 12, 11)  (  1, 11, 12)  (  1, 33,  3)

 MAXIMUM RESIDUAL FOR EACH ITERATION (1 INDICATES THE FIRST INNER ITERATION):

    RESIDUAL       RESIDUAL       RESIDUAL       RESIDUAL       RESIDUAL    
   LAYER,ROW,COL  LAYER,ROW,COL  LAYER,ROW,COL  LAYER,ROW,COL  LAYER,ROW,COL
 ---------------------------------------------------------------------------
  1 -0.1593E-04  0 -0.2057E-06  0 -0.1522E-08  1 -0.1540E-10
   (  1, 12, 11)  (  1, 11, 12)  (  1, 33,  3)  (  1, 32,  4)


 UBUDSV SAVING "      ZETASRF  1" ON UNIT170 AT TIME STEP119, STRESS PERIOD    2


                      VOLUMETRIC SWI ZONE BUDGET FOR ENTIRE MODEL
                     AT END OF TIME STEP  119 IN STRESS PERIOD   2
                                      ZONE     1
  -----------------------------------------------------------------------------------

        CUMULATIVE VOLUMES      L**3       RATES FOR THIS TIME STEP      L**3/T
        ------------------                 ------------------------

              IN:                                      IN:
              ---                                      ---
             BOUNDARIES =   886600832.0000            BOUNDARIES =           0.1774
          CONSTANT HEAD =           0.0000         CONSTANT HEAD =           0.0000
            ZONE CHANGE =   227331520.0000           ZONE CHANGE =       3.8307E-02
       ZONE CHG TIP/TOE =    15934100.0000      ZONE CHG TIP/TOE =       7.2776E-03
            ZONE MIXING =           0.0000           ZONE MIXING =           0.0000

               TOTAL IN =  1129866496.0000              TOTAL IN =           0.2229

             OUT:                                     OUT:
             ----                                     ----
             BOUNDARIES =  1030022848.0000            BOUNDARIES =           0.1967
          CONSTANT HEAD =           0.0000         CONSTANT HEAD =           0.0000
            ZONE CHANGE =    38514396.0000           ZONE CHANGE =       1.4513E-02
       ZONE CHG TIP/TOE =    12330367.0000      ZONE CHG TIP/TOE =       3.5025E-03
            ZONE MIXING =     3210418.0000           ZONE MIXING =       1.2260E-02

              TOTAL OUT =  1084078080.0000             TOTAL OUT =           0.2270

               IN - OUT =    45788416.0000              IN - OUT =      -4.0656E-03

    PERCENT DISCREPANCY =           4.14     PERCENT DISCREPANCY =          -1.81



                      VOLUMETRIC SWI ZONE BUDGET FOR ENTIRE MODEL
                     AT END OF TIME STEP  119 IN STRESS PERIOD   2
                                      ZONE     2
  -----------------------------------------------------------------------------------

        CUMULATIVE VOLUMES      L**3       RATES FOR THIS TIME STEP      L**3/T
        ------------------                 ------------------------

              IN:                                      IN:
              ---                                      ---
             BOUNDARIES =   200735136.0000            BOUNDARIES =           0.1441
          CONSTANT HEAD =           0.0000         CONSTANT HEAD =           0.0000
            ZONE CHANGE =    32293126.0000           ZONE CHANGE =       1.1141E-02
       ZONE CHG TIP/TOE =    41286504.0000      ZONE CHG TIP/TOE =       8.8903E-03
            ZONE MIXING =     3210418.0000           ZONE MIXING =       1.2260E-02

               TOTAL IN =   277525184.0000              TOTAL IN =           0.1763

             OUT:                                     OUT:
             ----                                     ----
             BOUNDARIES =   169615712.0000            BOUNDARIES =           0.1537
          CONSTANT HEAD =           0.0000         CONSTANT HEAD =           0.0000
            ZONE CHANGE =    87053360.0000           ZONE CHANGE =       1.9670E-02
       ZONE CHG TIP/TOE =    10127823.0000      ZONE CHG TIP/TOE =       3.7560E-03
            ZONE MIXING =           0.0000           ZONE MIXING =           0.0000

              TOTAL OUT =   266796896.0000             TOTAL OUT =           0.1771

               IN - OUT =    10728288.0000              IN - OUT =      -7.5564E-04

    PERCENT DISCREPANCY =           3.94     PERCENT DISCREPANCY =          -0.43


 HEAD WILL BE SAVED ON UNIT   37 AT END OF TIME STEP  119, STRESS PERIOD    2

 DRAWDOWN WILL BE SAVED ON UNIT   38 AT END OF TIME STEP  119, STRESS PERIOD    2
1
  VOLUMETRIC BUDGET FOR ENTIRE MODEL AT END OF TIME STEP  119, STRESS PERIOD   2
  ------------------------------------------------------------------------------

     CUMULATIVE VOLUMES      L**3       RATES FOR THIS TIME STEP      L**3/T
     ------------------                 ------------------------

           IN:                                      IN:
           ---                                      ---
             STORAGE =   107082184.0000               STORAGE =       2.9257E-02
       CONSTANT HEAD =           0.0000         CONSTANT HEAD =           0.0000
               WELLS =           0.0000                 WELLS =           0.0000
       RIVER LEAKAGE =   182737504.0000         RIVER LEAKAGE =       3.4000E-02
                  ET =           0.0000                    ET =           0.0000
     HEAD DEP BOUNDS =   214025120.0000       HEAD DEP BOUNDS =           0.1504
            RECHARGE =   753655808.0000              RECHARGE =           0.1566
          SWIADDTOCH =           0.0000            SWIADDTOCH =           0.0000

            TOTAL IN =  1257500672.0000              TOTAL IN =           0.3703

          OUT:                                     OUT:
          ----                                     ----
             STORAGE =      248161.8594               STORAGE =       2.6119E-04
       CONSTANT HEAD =           0.0000         CONSTANT HEAD =           0.0000
               WELLS =   712493248.0000                 WELLS =           0.3700
       RIVER LEAKAGE =    21630804.0000         RIVER LEAKAGE =           0.0000
                  ET =   166413648.0000                    ET =           0.0000
     HEAD DEP BOUNDS =   356727456.0000       HEAD DEP BOUNDS =           0.0000
            RECHARGE =           0.0000              RECHARGE =           0.0000
          SWIADDTOCH =           0.0000            SWIADDTOCH =           0.0000

           TOTAL OUT =  1257513344.0000             TOTAL OUT =           0.3703

            IN - OUT =      -12672.0000              IN - OUT =           0.0000

 PERCENT DISCREPANCY =          -0.00     PERCENT DISCREPANCY =           0.00






         TIME SUMMARY AT END OF TIME STEP  119 IN STRESS PERIOD    2
                    SECONDS     MINUTES      HOURS       DAYS        YEARS
                    -----------------------------------------------------------
   TIME STEP LENGTH 1.57680E+07 2.62800E+05  4380.0      182.50     0.49966    
 STRESS PERIOD TIME 1.87640E+09 3.12733E+07 5.21221E+05  21718.      59.459    
         TOTAL TIME 5.03000E+09 8.38333E+07 1.39722E+06  58218.      159.39    
1
 
 SOLVING FOR HEAD 

 CELL CONVERSIONS FOR ITER.=  2  LAYER=  2  STEP=120  PERIOD=   2   (ROW,COL)
    DRY(  5, 31)   DRY( 10, 21)   
    19 CALLS TO PCG ROUTINE FOR TIME STEP 120 IN STRESS PERIOD    2
    43 TOTAL ITERATIONS

 MAXIMUM HEAD CHANGE FOR EACH ITERATION (1 INDICATES THE FIRST INNER ITERATION):

    HEAD CHANGE    HEAD CHANGE    HEAD CHANGE    HEAD CHANGE    HEAD CHANGE 
   LAYER,ROW,COL  LAYER,ROW,COL  LAYER,ROW,COL  LAYER,ROW,COL  LAYER,ROW,COL
 ---------------------------------------------------------------------------
  1  0.2732      0 -0.1142      0 -0.2425E-01  0  0.7980E-02  0 -0.1695E-02
   (  2, 18, 12)  (  1, 17, 12)  (  2, 14, 13)  (  1, 17, 11)  (  1, 19, 11)
  0 -0.5634E-03  1  0.1694E-01  0  0.6441E-02  0  0.1672E-02  0  0.3947E-03
   (  2,  6, 10)  (  2, 51, 34)  (  2, 51, 34)  (  2, 51, 34)  (  2, 51, 34)
  1 -0.2085E-01  0 -0.3096E-03  1  0.1718E-01  0  0.2480E-03  1 -0.1418E-01
   (  2, 51, 34)  (  2, 51, 34)  (  2, 51, 34)  (  2, 51, 34)  (  2, 51, 34)
  0 -0.2028E-03  1  0.1162E-01  0  0.1736E-03  1 -0.9568E-02  0 -0.1394E-03
   (  2, 51, 34)  (  2, 51, 34)  (  2, 51, 34)  (  2, 51, 34)  (  2, 51, 34)
  1  0.7846E-02  0  0.1162E-03  1 -0.6454E-02  0 -0.9355E-04  1  0.5296E-02
   (  2, 51, 34)  (  2, 51, 34)  (  2, 51, 34)  (  2, 51, 34)  (  2, 51, 34)
  0  0.7733E-04  1 -0.4355E-02  0 -0.6247E-04  1  0.3576E-02  0  0.5138E-04
   (  2, 51, 34)  (  2, 51, 34)  (  2, 51, 34)  (  2, 51, 34)  (  2, 51, 34)
  1 -0.2941E-02  0 -0.4159E-04  1  0.2417E-02  0  0.3406E-04  1 -0.1988E-02
   (  2, 51, 34)  (  2, 51, 34)  (  2, 51, 34)  (  2, 51, 34)  (  2, 51, 34)
  0 -0.2759E-04  1  0.1635E-02  0  0.2253E-04  1 -0.1346E-02  0 -0.1824E-04
   (  2, 51, 34)  (  2, 51, 34)  (  2, 51, 34)  (  2, 51, 34)  (  2, 51, 34)
  1  0.1107E-02  0  0.1483E-04  1 -0.9123E-03
   (  2, 51, 34)  (  2, 51, 34)  (  2, 51, 34)

 MAXIMUM RESIDUAL FOR EACH ITERATION (1 INDICATES THE FIRST INNER ITERATION):

    RESIDUAL       RESIDUAL       RESIDUAL       RESIDUAL       RESIDUAL    
   LAYER,ROW,COL  LAYER,ROW,COL  LAYER,ROW,COL  LAYER,ROW,COL  LAYER,ROW,COL
 ---------------------------------------------------------------------------
  1  0.7164E-03  0  0.2105E-03  0 -0.5327E-04  0  0.1862E-04  0  0.6292E-05
   (  2, 17, 11)  (  1, 17, 12)  (  1, 16, 12)  (  1, 18, 11)  (  1, 18, 11)
  0 -0.2418E-05  1 -0.2772E-05  0  0.7771E-06  0 -0.3615E-06  0  0.8790E-07
   (  1, 18, 12)  (  2, 19, 11)  (  2, 18,  9)  (  2, 17, 11)  (  2, 13, 13)
  1 -0.2818E-06  0  0.1084E-06  1 -0.2524E-06  0 -0.1276E-06  1  0.2167E-06
   (  2, 18, 11)  (  2, 50, 34)  (  2, 51, 35)  (  2, 51, 35)  (  2, 51, 35)
  0  0.1115E-06  1 -0.1840E-06  0 -0.9750E-07  1  0.1516E-06  0  0.7996E-07
   (  2, 51, 35)  (  2, 51, 35)  (  2, 51, 35)  (  2, 51, 35)  (  2, 51, 35)
  1 -0.1264E-06  0 -0.6724E-07  1  0.1037E-06  0  0.5509E-07  1 -0.8613E-07
   (  2, 51, 35)  (  2, 51, 35)  (  2, 51, 35)  (  2, 51, 35)  (  2, 51, 35)
  0 -0.4589E-07  1  0.7082E-07  0  0.3772E-07  1 -0.5873E-07  0 -0.3131E-07
   (  2, 51, 35)  (  2, 51, 35)  (  2, 51, 35)  (  2, 51, 35)  (  2, 51, 35)
  1  0.4840E-07  0  0.2581E-07  1 -0.4013E-07  0 -0.2139E-07  1  0.3313E-07
   (  2, 51, 35)  (  2, 51, 35)  (  2, 51, 35)  (  2, 51, 35)  (  2, 51, 35)
  0  0.1766E-07  1  0.2757E-07  0 -0.1464E-07  1  0.2301E-07  0  0.1211E-07
   (  2, 51, 35)  (  2,  5, 11)  (  2, 51, 35)  (  2,  5, 11)  (  2, 51, 35)
  1  0.1917E-07  0 -0.1004E-07  1  0.1596E-07
   (  2,  5, 11)  (  2, 51, 35)  (  2,  5, 11)



 OUTPUT CONTROL FOR STRESS PERIOD    2   TIME STEP  120
    SAVE HEAD FOR ALL LAYERS
    SAVE DRAWDOWN FOR ALL LAYERS
    SAVE BUDGET
    PRINT BUDGET
 UBDSV1 SAVING "         STORAGE" ON UNIT   9 AT TIME STEP120, STRESS PERIOD   2
 UBDSV2 SAVING "   CONSTANT HEAD" ON UNIT   9 AT TIME STEP120, STRESS PERIOD   2
 UBDSV1 SAVING "FLOW RIGHT FACE " ON UNIT   9 AT TIME STEP120, STRESS PERIOD   2
 UBDSV1 SAVING "FLOW FRONT FACE " ON UNIT   9 AT TIME STEP120, STRESS PERIOD   2
 UBDSV1 SAVING "FLOW LOWER FACE " ON UNIT   9 AT TIME STEP120, STRESS PERIOD   2
 UBDSV4 SAVING "           WELLS" ON UNIT   9 AT TIME STEP120, STRESS PERIOD   2
 UBDSV4 SAVING "   RIVER LEAKAGE" ON UNIT   9 AT TIME STEP120, STRESS PERIOD   2
 UBDSV3 SAVING "              ET" ON UNIT   9 AT TIME STEP120, STRESS PERIOD   2
 UBDSV4 SAVING " HEAD DEP BOUNDS" ON UNIT   9 AT TIME STEP120, STRESS PERIOD   2
 UBDSV3 SAVING "        RECHARGE" ON UNIT   9 AT TIME STEP120, STRESS PERIOD   2
 SOLVING FOR ZETA FOR LAYER     1 ZONE     2
     2 CALLS TO PCG ROUTINE FOR TIME STEP 120 IN STRESS PERIOD    2
     4 TOTAL ITERATIONS

 MAXIMUM HEAD CHANGE FOR EACH ITERATION (1 INDICATES THE FIRST INNER ITERATION):

    HEAD CHANGE    HEAD CHANGE    HEAD CHANGE    HEAD CHANGE    HEAD CHANGE 
   LAYER,ROW,COL  LAYER,ROW,COL  LAYER,ROW,COL  LAYER,ROW,COL  LAYER,ROW,COL
 ---------------------------------------------------------------------------
  1   35.00      0  0.1367      0  0.8335E-03  1  0.5862E-05
   (  1, 20,  9)  (  1, 19, 10)  (  1, 19,  8)  (  1, 25,  4)

 MAXIMUM RESIDUAL FOR EACH ITERATION (1 INDICATES THE FIRST INNER ITERATION):

    RESIDUAL       RESIDUAL       RESIDUAL       RESIDUAL       RESIDUAL    
   LAYER,ROW,COL  LAYER,ROW,COL  LAYER,ROW,COL  LAYER,ROW,COL  LAYER,ROW,COL
 ---------------------------------------------------------------------------
  1 -0.4515E-04  0 -0.2741E-06  0 -0.2182E-08  1 -0.3858E-10
   (  1, 19, 10)  (  1, 19,  8)  (  1, 25,  4)  (  1, 24,  5)


 SOLVING FOR ZETA FOR LAYER     2 ZONE     2
     2 CALLS TO PCG ROUTINE FOR TIME STEP 120 IN STRESS PERIOD    2
     4 TOTAL ITERATIONS

 MAXIMUM HEAD CHANGE FOR EACH ITERATION (1 INDICATES THE FIRST INNER ITERATION):

    HEAD CHANGE    HEAD CHANGE    HEAD CHANGE    HEAD CHANGE    HEAD CHANGE 
   LAYER,ROW,COL  LAYER,ROW,COL  LAYER,ROW,COL  LAYER,ROW,COL  LAYER,ROW,COL
 ---------------------------------------------------------------------------
  1  -5.868      0  0.5376E-01  0  0.6404E-03  1  0.4028E-05
   (  1, 17, 12)  (  1, 12, 11)  (  1, 11, 12)  (  1, 33,  3)

 MAXIMUM RESIDUAL FOR EACH ITERATION (1 INDICATES THE FIRST INNER ITERATION):

    RESIDUAL       RESIDUAL       RESIDUAL       RESIDUAL       RESIDUAL    
   LAYER,ROW,COL  LAYER,ROW,COL  LAYER,ROW,COL  LAYER,ROW,COL  LAYER,ROW,COL
 ---------------------------------------------------------------------------
  1 -0.1676E-04  0 -0.1993E-06  0 -0.1404E-08  1 -0.1692E-10
   (  1, 12, 11)  (  1, 11, 12)  (  1, 33,  3)  (  1, 29,  6)


 UBUDSV SAVING "      ZETASRF  1" ON UNIT170 AT TIME STEP120, STRESS PERIOD    2


                      VOLUMETRIC SWI ZONE BUDGET FOR ENTIRE MODEL
                     AT END OF TIME STEP  120 IN STRESS PERIOD   2
                                      ZONE     1
  -----------------------------------------------------------------------------------

        CUMULATIVE VOLUMES      L**3       RATES FOR THIS TIME STEP      L**3/T
        ------------------                 ------------------------

              IN:                                      IN:
              ---                                      ---
             BOUNDARIES =   889399104.0000            BOUNDARIES =           0.1775
          CONSTANT HEAD =           0.0000         CONSTANT HEAD =           0.0000
            ZONE CHANGE =   227964336.0000           ZONE CHANGE =       4.0133E-02
       ZONE CHG TIP/TOE =    16068137.0000      ZONE CHG TIP/TOE =       8.5006E-03
            ZONE MIXING =           0.0000           ZONE MIXING =           0.0000

               TOTAL IN =  1133431552.0000              TOTAL IN =           0.2261

             OUT:                                     OUT:
             ----                                     ----
             BOUNDARIES =  1034271488.0000            BOUNDARIES =           0.2694
          CONSTANT HEAD =           0.0000         CONSTANT HEAD =           0.0000
            ZONE CHANGE =    38690696.0000           ZONE CHANGE =       1.1181E-02
       ZONE CHG TIP/TOE =    12443349.0000      ZONE CHG TIP/TOE =       7.1653E-03
            ZONE MIXING =     3256238.7500           ZONE MIXING =       2.9059E-03

              TOTAL OUT =  1088661760.0000             TOTAL OUT =           0.2907

               IN - OUT =    44769792.0000              IN - OUT =      -6.4602E-02

    PERCENT DISCREPANCY =           4.03     PERCENT DISCREPANCY =         -25.00



                      VOLUMETRIC SWI ZONE BUDGET FOR ENTIRE MODEL
                     AT END OF TIME STEP  120 IN STRESS PERIOD   2
                                      ZONE     2
  -----------------------------------------------------------------------------------

        CUMULATIVE VOLUMES      L**3       RATES FOR THIS TIME STEP      L**3/T
        ------------------                 ------------------------

              IN:                                      IN:
              ---                                      ---
             BOUNDARIES =   203011952.0000            BOUNDARIES =           0.1444
          CONSTANT HEAD =           0.0000         CONSTANT HEAD =           0.0000
            ZONE CHANGE =    32426192.0000           ZONE CHANGE =       8.4390E-03
       ZONE CHG TIP/TOE =    42431576.0000      ZONE CHG TIP/TOE =       7.2620E-02
            ZONE MIXING =     3256238.7500           ZONE MIXING =       2.9059E-03

               TOTAL IN =   281125952.0000              TOTAL IN =           0.2284

             OUT:                                     OUT:
             ----                                     ----
             BOUNDARIES =   170892224.0000            BOUNDARIES =       8.0956E-02
          CONSTANT HEAD =           0.0000         CONSTANT HEAD =           0.0000
            ZONE CHANGE =    88343416.0000           ZONE CHANGE =       8.1815E-02
       ZONE CHG TIP/TOE =    10218218.0000      ZONE CHG TIP/TOE =       5.7328E-03
            ZONE MIXING =           0.0000           ZONE MIXING =           0.0000

              TOTAL OUT =   269453856.0000             TOTAL OUT =           0.1685

               IN - OUT =    11672096.0000              IN - OUT =       5.9856E-02

    PERCENT DISCREPANCY =           4.24     PERCENT DISCREPANCY =          30.16


 HEAD WILL BE SAVED ON UNIT   37 AT END OF TIME STEP  120, STRESS PERIOD    2

 DRAWDOWN WILL BE SAVED ON UNIT   38 AT END OF TIME STEP  120, STRESS PERIOD    2
1
  VOLUMETRIC BUDGET FOR ENTIRE MODEL AT END OF TIME STEP  120, STRESS PERIOD   2
  ------------------------------------------------------------------------------

     CUMULATIVE VOLUMES      L**3       RATES FOR THIS TIME STEP      L**3/T
     ------------------                 ------------------------

           IN:                                      IN:
           ---                                      ---
             STORAGE =   107535608.0000               STORAGE =       2.8756E-02
       CONSTANT HEAD =           0.0000         CONSTANT HEAD =           0.0000
               WELLS =           0.0000                 WELLS =           0.0000
       RIVER LEAKAGE =   183273616.0000         RIVER LEAKAGE =       3.4000E-02
                  ET =           0.0000                    ET =           0.0000
     HEAD DEP BOUNDS =   216404064.0000       HEAD DEP BOUNDS =           0.1509
            RECHARGE =   756124800.0000              RECHARGE =           0.1566
          SWIADDTOCH =           0.0000            SWIADDTOCH =           0.0000

            TOTAL IN =  1263338112.0000              TOTAL IN =           0.3702

          OUT:                                     OUT:
          ----                                     ----
             STORAGE =      251490.7500               STORAGE =       2.1112E-04
       CONSTANT HEAD =           0.0000         CONSTANT HEAD =           0.0000
               WELLS =   718327424.0000                 WELLS =           0.3700
       RIVER LEAKAGE =    21630804.0000         RIVER LEAKAGE =           0.0000
                  ET =   166413648.0000                    ET =           0.0000
     HEAD DEP BOUNDS =   356727456.0000       HEAD DEP BOUNDS =           0.0000
            RECHARGE =           0.0000              RECHARGE =           0.0000
          SWIADDTOCH =           0.0000            SWIADDTOCH =           0.0000

           TOTAL OUT =  1263350784.0000             TOTAL OUT =           0.3702

            IN - OUT =      -12672.0000              IN - OUT =           0.0000

 PERCENT DISCREPANCY =          -0.00     PERCENT DISCREPANCY =           0.00






         TIME SUMMARY AT END OF TIME STEP  120 IN STRESS PERIOD    2
                    SECONDS     MINUTES      HOURS       DAYS        YEARS
                    -----------------------------------------------------------
   TIME STEP LENGTH 1.57680E+07 2.62800E+05  4380.0      182.50     0.49966    
 STRESS PERIOD TIME 1.89216E+09 3.15361E+07 5.25601E+05  21900.      59.959    
         TOTAL TIME 5.04577E+09 8.40961E+07 1.40160E+06  58400.      159.89    
1

 Run end date and time (yyyy/mm/dd hh:mm:ss): 2016/07/05  9:12:21
 Elapsed run time: 20.833 Seconds

